// This file is to define load shape curves.


//***************************************************************************************//
//                                             Feeder A
//***************************************************************************************//
//----------------------------------------------------------------------------------------------------------------------//
New LoadShape.1003_loadcurve interval=1 npts=1056 useactual=Yes
~ mult=(15.434 14.526 15.054 14.667 13.87 13.516 12.884 13.43 11.331 11.749 11.511 11.72 11.063 14.099 12.124 11.395 11.945 12.189 12.612 13.385 13.923 14.158 13.13 14.626 14.379 13.912 14.117 14.013 14.394 13.644 13.339 14.728 24.786 33.609 48.844 44.901 48.301 41.992 45.989 46.402 46.245 37.172 27.896 13.622 12.101 12.822 12.346 12.216 12.485 12.393 12.556 12.59 12.259 12.164 12.713 14.238 22.87 31.371 47.393 44.31 42.854 42.716 46.796 46.022 43.401 40.712 29.792 15.449 13.565 12.737 13.081 13.087 13.267 13.56 13.562 13.293 13.418 12.825 12.558 12.201 23.196 39.082 48.022 51.204 47.477 43.609 47.999 46.098 38.928 35.432 29.476 18.374 12.718 13.338 13.279 12.461 12.748 13.067 12.36 11.539 12.113 11.654 12.042 11.662 18.263 31.408 46.06 42.425 42.574 46.213 43.925 44.521 42.265 39.227 28.093 13.889 13.212 12.718 12.523 12.688 12.279 12.698 12.581 12.828 12.613 12.789 12.853 12.198 19.553 34.403 48.866 46.764 43.411 42.298 43.661 44.133 40.932 38.604 30.199 16.424 15.055 15.148 14.568 14.979 14.488 14.735 14.504 14.379 14.176 14.256 14.078 13.16 14.334 19.554 31.152 31.198 27.319 28.152 18.096 16.923 16.594 15.971 12.526 14.257 14.675 14.593 14.166 14.161 14.032 14.225 14.135 13.952 14.362 14.57 14.583 14.485 12.339 12.564 12.478 12.792 12.363 12.364 12.039 11.276 12.203 11.622 11.547 12.959 14.155 14.545 14.259 14.581 14.789 14.769 14.505 14.226 14.102 14.149 14.611 17.925 26.693 34.621 41.848 41.683 41.867 44.206 42.458 40.44 38.973 30.367 20.169 14.088 13.694 13.52 13.807 14.232 14.516 14.983 14.408 14.447 14.056 13.637 13.817 18.129 29.849 43.912 44.057 42.847 42.917 45.877 48.116 42.937 37.273 31.427 19.694 14.486 14.283 14.436 13.939 14.591 15.067 14.518 15.115 14.933 15.366 15.382 14.371 19.526 29.962 45.983 43.674 41.528 42.169 41.099 39.551 37.746 39.25 31.894 16.546 17.45 16.051 16.421 15.53 16.257 15.966 16.228 17.058 16.31 15.862 15.966 16.028 18.521 31.578 44.256 43.169 50.441 45.846 49.898 44.845 45.323 39.192 30.513 17.142 14.18 14.716 14.656 14.454 14.896 15.143 14.571 14.232 14.959 14.425 14.312 14.64 23.983 34.273 50.225 46.619 47.392 43.256 47.292 46.546 43.237 34.935 27.165 14.112 12.361 12.465 12.425 12.596 12.875 11.978 12.528 12.425 12.307 12.057 12.137 12.759 11.867 14.214 28.156 26.961 28.709 23.352 22.723 12.875 13.267 12.467 11.472 10.78 11.716 12.569 12.609 12.99 12.95 12.644 12.518 13.037 13.021 13.42 12.922 13.157 12.089 11.149 11.064 10.881 10.914 14.244 20.619 18.487 20.621 21.753 15.45 10.643 13.403 13.442 13.584 13.772 13.388 12.671 12.539 12.517 12.387 13.072 12.778 14.373 19.356 29.694 43.246 45.969 46.094 40.452 42.485 40.581 44.146 34.811 26.828 16.09 12.839 13.203 13.13 12.705 12.289 12.46 12.381 11.709 11.283 11.587 10.982 11.888 21.135 35.117 42.794 45.071 47.473 44.669 44.855 43.26 42.919 33.367 27.75 14.544 13.157 14.307 14.254 13.864 14.466 13.82 14.817 13.756 14.086 12.758 12.768 13.986 16.996 26.044 42.522 40.964 41.008 43.155 44.758 41.279 42.191 39.38 28.922 13.888 14.695 15.04 14.831 15.207 15.392 14.754 14.16 14.532 13.579 12.592 12.847 12.825 19.369 30.57 46.002 50.291 52.529 50.509 49.418 45.081 40.286 33.425 27.036 14.974 12.688 12.854 11.259 11.65 11.39 11.495 11.255 11.541 11.284 10.921 10.48 11.135 20.651 28.649 49.078 53.284 49.539 44.002 49.674 45.791 40.779 36.926 29.36 13.346 10.664 10.968 11.041 11.103 11.253 11.173 11.207 11.103 11.333 11.48 11.322 11.251 15.825 23.014 29.412 33.246 34.622 33.432 25.96 20.417 14.34 13.859 9.912 10.586 10.786 11.907 11.595 11.721 11.498 11.629 11.434 11.438 11.555 11.781 11.166 11.44 11.982 9.838 13.123 13.701 13.812 12.206 11.644 9.054 9.678 9.668 9.858 9.855 10.682 11.282 11.631 11.593 11.976 11.467 11.657 11.291 11.54 11.174 11.716 12.651 19.395 29.18 42.67 41.235 40.843 39.582 41.889 42.566 40.173 34.797 25.449 19.761 11.567 10.974 11.23 11.282 11.446 11.347 11.507 11.461 11.344 12.243 11.513 11.685 19.502 27.704 43.445 44.882 44.018 44.34 45.731 42.066 40.58 37.134 27.548 14.689 10.018 12.986 13.102 13.437 10.668 11.322 10.892 11.249 10.716 11.79 10.809 11.274 20.76 34.784 43.17 45.474 44.256 48.145 48.112 44.417 46.583 39.495 29.297 12.453 10.261 10.834 11.5 11.221 11.412 11.161 11.258 10.569 11.371 9.167 9.75 10.058 17.041 30.266 49.172 45.141 42.543 44.315 41.637 37.452 41.057 33.516 26.343 9.95 9.626 10.006 9.961 10.072 9.623 9.918 10.082 9.612 9.603 10.299 9.573 9.712 16.443 28.541 48.101 44.372 42.739 42.273 41.802 39.893 38.239 38.243 28.843 19.456 11.769 9.499 9.323 9.817 9.191 10.086 9.657 9.167 9.613 10.131 9.667 12.92 11.6 13.747 26.203 25.201 22.249 22.794 19.369 13.355 10.592 11.141 11.341 7.356 7.758 8.182 8.77 8.598 8.438 8.67 8.622 8.8 8.983 8.74 8.694 9.367 10.197 11.873 11.982 14.402 9.524 8.171 11.083 7.509 7.433 7.712 9.141 7.586 9.554 9.057 9.096 8.998 9.214 9.035 9.491 8.831 9.461 8.773 9.312 10.648 22.422 32.569 43.693 41.967 40.771 42.252 41.398 42.4 41.03 35.37 29.069 14.443 10.526 10.135 9.748 9.876 10.052 9.743 9.686 9.879 10.535 9.869 10.055 10.093 15.833 26.342 46.584 40.805 39.768 35.916 42.509 39.952 38.083 37.049 23.401 10.404 8.114 9.4 9.811 9.992 9.56 9.566 10.107 9.403 10.015 10.284 9.69 9.786 18.897 27.972 47.984 44.629 42.435 40.035 44.135 41.962 41.066 37.164 30.356 11.475 8.836 9.976 10.136 9.848 10.365 9.879 10.747 9.704 10.253 10.541 10.431 7.061 14.954 32.189 44.985 45.935 43.911 41.819 40.855 40.47 38.119 33.171 24.232 10.574 7.735 9.424 9.684 9.376 9.556 10.266 9.686 10.977 10.314 10.287 10.604 10.166 14.778 32.056 44.323 44.915 43.635 41.925 41.341 38.514 35.241 32.623 23.725 9.919 7.39 8.675 8.479 9.663 8.9 8.749 9.232 9.008 9.062 9.269 8.812 8.774 7.251 9.731 20.492 18.785 18.914 20.629 15.951 10.854 11.251 9.225 7.27 6.949 7.307 8.446 8.524 8.409 8.506 8.688 8.875 8.319 8.858 8.645 8.592 8.574 7.282 6.557 6.929 6.757 6.302 9.971 9.76 8.704 6.869 6.707 6.622 6.675 7.062 8.245 8.56 8.486 8.485 8.327 8.963 9.042 8.803 8.444 8.592 9.564 13.205 28.496 36.077 39.008 42.731 38.409 39.375 37.836 34.342 28.446 22.604 10.393 9.557 10.183 10.211 10.452 9.867 10.509 9.901 10.21 10.4 10.003 10.188 10.209 20.277 28.919 41.598 43.06 41.937 41.24 43.379 41.519 38.172 33.466 26.961 8.765 7.503 9.519 9.84 9.6 9.465 9.46 9.634 9.274 9.714 9.919 10.16 9.673 15.212 22.605 39.762 38.016 39.015 38.458 38.235 36.066 34.213 33.94 22.619 8.266 8.862 10.07 9.764 9.381 9.496 9.425 9.115 9.144 9.322 9.256 9.994 9.449 18.74 31.211 45.601 45.906 43.01 42.95 42.549 42.246 35.924 32.892 23.582 8.745 7.848 8.925 9.422 9.211 9.478 8.911 9.297 9.442 9.307 9.298 9.141 9.889 16.45 29.872 38.648 38.768 36.425 39.025 38.492 33.502 32.233 28.044 22.051 11.151 8.561 9.125 9.605 9.198 8.978 9.103 8.805 8.938 9.53 8.999 8.859 9.276 8.828 15.701 26.638 23.415 21.895 20.391 10.593 10.357 9.768 9.848 7.278 7.011 7.318 8.493 8.402 8.552 8.384 8.623 8.371 8.929 8.417 8.361 8.607 8.268 7.698 6.992 6.961 7.098 6.893 7.032 7.252 6.596 6.756 7.693 7.115 6.734 6.703 8.124 8.896 8.586 8.294 8.561 8.465 9.192 8.311 8.542 8.686 8.459 18.139 24.16 37.348 36.448 34.968 35.328 38.993 37.032 38.056 30.02 23.987 9.108 8.98 9.225 9.018 8.731 8.919 )
~ Qmult=(3.8681 4.2367 7.291 6.6825 5.9086 5.3419 5.8701 5.7212 3.7243 5.6903 4.5494 1.67 2.2464 4.1122 4.7917 4.8542 2.4255 5.5535 4.1454 3.3546 5.5027 6.857 5.1893 6.6638 3.6037 6.7379 4.64 2.8455 5.6889 6.2164 6.0774 4.8409 6.212 4.789 9.9182 13.0961 19.0898 15.2411 9.3385 21.1414 18.2772 7.5481 6.9914 2.7661 2.4572 5.8419 5.9794 4.0152 4.1036 2.5165 3.1468 4.5696 2.4893 1.7333 3.1862 6.8958 11.0764 6.3702 18.7309 8.9975 19.5249 10.7056 9.5023 13.4231 15.7525 5.8011 10.8131 5.6072 1.9329 3.1922 2.6562 4.7499 5.6517 4.9216 1.9325 3.8771 5.716 3.2142 4.9632 3.0579 6.7655 12.8456 18.9795 7.2962 17.2318 10.9294 13.9997 15.1517 18.8537 12.8601 13.4297 7.8273 5.4178 2.7084 4.3646 6.0351 1.8165 6.3286 5.2653 3.3655 5.5188 4.2298 4.3707 3.4014 6.0028 12.4132 6.5632 6.0452 13.9934 15.1895 20.0128 17.5958 19.2565 18.9985 12.7995 4.051 6.3989 5.0265 5.3348 1.8079 5.947 1.8094 1.7927 5.8446 4.1457 2.5969 4.665 2.4769 3.9704 14.6556 23.6669 21.3063 15.7561 8.589 14.3507 6.2886 16.1774 17.5885 8.808 6.4912 3.057 4.4182 4.7883 6.8246 7.0169 4.2977 3.635 2.0489 5.6027 6.073 6.8183 4.7764 5.2025 3.9706 7.8074 13.2903 10.7972 9.2531 7.152 4.9359 7.5604 3.243 4.9506 2.0315 2.0911 6.6488 6.0347 6.0326 6.3932 6.4811 2.0141 2.8331 5.6762 5.7584 6.6442 3.6303 5.2564 3.6645 4.9316 5.0557 4.4872 4.4875 4.7581 2.826 1.7388 5.2951 3.3679 6.2763 6.03 2.9535 6.0743 2.0777 3.7065 2.1045 7.0251 2.8887 6.8299 6.0274 5.7746 6.5059 3.8035 16.7677 15.1888 18.9913 17.8353 16.0446 6.0499 14.6778 12.8098 13.8356 9.1893 2.0074 3.9941 2.7454 6.687 4.6778 7.0304 7.2566 6.5645 3.6208 4.0997 6.6047 1.9688 8.7803 7.4809 6.2571 11.0417 6.1054 16.9619 19.5435 15.815 6.1182 14.7312 12.4207 8.9729 7.0159 6.9176 2.057 4.0655 7.0667 5.4686 3.6386 4.4085 7.2324 4.4817 4.4864 2.0478 6.4179 6.084 19.5887 17.2611 12.1123 13.8603 5.8563 15.6316 14.9182 17.8828 13.5868 8.0136 4.3734 6.3438 4.1155 3.1535 6.9255 5.2478 4.7332 4.9752 6.4461 5.2136 7.7327 6.8279 6.7222 12.4804 12.908 10.8192 22.9816 19.5303 14.5536 11.2392 6.4582 18.9816 13.9021 5.6343 4.1358 2.9882 3.6731 7.0004 5.4065 2.1578 7.0571 6.8929 7.245 6.145 2.9062 3.6691 8.7047 15.6152 12.5876 21.2402 17.201 8.7835 20.1463 16.8939 10.8362 14.8822 5.5161 4.6384 2.51 3.124 4.5097 3.6738 5.4847 5.4573 4.1178 5.661 5.6072 5.4933 5.8782 3.7214 3.4612 5.159 4.012 13.0578 11.3465 11.3099 7.4687 5.4847 6.0446 4.9273 5.5561 4.9115 4.991 4.5619 5.3714 6.2913 4.2565 3.1689 5.7034 5.1526 4.2798 6.4996 2.6239 5.6049 4.3877 3.6645 3.6366 2.2095 3.1833 3.5699 4.1869 3.7539 6.7778 5.4518 2.2015 1.5165 1.9098 2.7295 4.4648 5.443 6.0998 6.1368 4.1214 5.3322 5.2768 1.8627 2.5947 3.6022 3.9304 12.6496 18.4227 13.4076 15.1504 5.7641 8.6269 14.7289 6.2905 7.0687 10.6031 6.3592 2.6071 4.3396 1.8709 4.1759 5.599 1.7755 5.641 2.3776 3.2909 3.8085 2.7523 3.4673 6.1644 14.9598 10.7252 17.8132 13.8463 14.682 13.0827 6.1642 19.5545 9.732 13.4399 4.242 2.6716 6.0948 6.9035 5.032 4.2192 6.6933 4.8701 6.6623 5.1125 3.7211 6.1838 5.0762 6.7172 7.5962 19.3736 17.4506 14.8839 10.8157 17.6895 10.3455 10.5741 11.4858 8.4356 2.8201 5.8078 4.3867 5.8616 3.0879 6.557 5.8312 5.5964 7.0382 6.5766 5.3642 4.6628 5.0688 8.2512 7.6616 19.5968 12.6041 20.7608 14.7318 16.2429 21.8337 18.3548 10.9863 13.0941 7.2522 2.5764 4.2249 3.7007 5.3079 3.7437 5.2373 3.2827 3.7933 2.828 4.3163 3.8037 4.4008 4.1934 13.0529 9.9657 10.8198 21.1035 12.8339 19.6324 15.0508 8.2805 9.2545 12.5073 3.3448 5.1648 2.7488 1.5733 3.2384 5.4501 4.0553 3.6836 2.2546 4.4791 4.8905 4.8232 5.1261 6.2544 3.2793 11.6244 12.0667 14.7489 9.751 8.5326 5.117 2.0433 2.8142 2.4842 4.5096 3.1459 1.6967 5.2828 5.3402 5.2386 3.3918 5.2095 5.5397 5.5963 2.9526 4.7567 5.5406 5.1043 2.4656 1.8699 1.9523 5.0131 2.4785 1.6592 3.857 4.4094 3.1777 4.4914 2.0011 3.877 3.7082 2.3618 4.9386 1.7065 1.634 5.3111 2.2927 5.5891 4.4162 5.6743 2.5689 3.9383 8.5108 20.666 13.5533 8.2935 9.9202 15.2037 12.4151 17.1136 10.1491 12.3255 9.0034 1.6482 5.315 4.0759 3.2906 1.631 5.4956 3.7822 5.2218 5.1685 3.5709 2.8854 4.9778 8.3078 10.9493 12.6715 9.1137 6.2722 9.0036 18.074 20.3735 11.8358 7.5404 9.0546 7.1142 4.2677 5.532 1.8669 2.7285 4.8605 2.8376 4.64 4.7921 4.565 4.6597 4.6046 4.4558 6.055 13.7475 17.0619 11.3969 12.908 17.4743 15.8136 21.5121 22.5612 15.6094 9.6295 4.0931 4.3712 3.9322 2.3352 1.5989 2.8601 1.5904 3.7003 2.1461 4.1271 2.6737 4.1535 2.9336 6.1851 4.3127 23.8151 13.1661 10.6623 14.5656 18.9704 14.802 10.2899 9.7755 8.6585 2.0204 4.1007 4.2625 2.9053 3.6556 2.8067 2.8927 2.0472 4.6553 1.3684 1.4675 3.4745 1.3839 7.4917 12.1584 19.0107 20.2165 12.4655 16.7074 17.8076 14.4792 15.113 17.424 13.9693 2.7723 4.2716 2.7705 3.3838 4.182 1.3096 3.3151 1.9609 4.1766 4.3798 2.0572 4.4044 4.6893 5.6181 5.4332 9.5104 7.3503 9.478 8.2731 9.3808 4.3896 3.4814 4.4032 2.3029 1.8436 2.2628 3.9627 3.736 2.5078 1.7134 2.1729 1.2286 3.7488 2.2514 2.8727 4.2107 4.2677 4.3439 3.9025 4.7356 6.9752 3.4568 3.7228 5.3677 3.6368 1.5093 3.5137 3.894 3.4563 4.07 3.5796 3.8749 4.3579 2.6874 4.1165 4.5967 4.0235 2.3712 1.7814 3.6803 5.1571 10.8595 10.7049 10.9505 10.5179 11.8915 16.6991 5.8989 18.0623 5.8465 7.1822 14.0788 2.058 3.0701 1.4442 3.8527 2.4752 4.2821 3.2024 3.8282 4.2084 4.4879 1.4063 2.9327 1.4382 3.9681 12.0018 18.4112 13.412 15.7173 10.4755 15.4287 14.5006 13.8223 9.2854 5.8648 1.4825 3.9298 1.9088 4.1795 2.5042 1.9412 2.7901 3.322 1.3399 4.563 1.4654 3.8297 1.3944 7.4686 7.0104 9.7436 6.3593 8.6168 18.2405 16.0189 20.3231 17.494 13.4887 9.9775 2.3301 1.2591 4.5452 3.3315 1.9997 4.4155 2.8814 1.5314 3.1896 4.9658 3.4647 1.4863 1.4338 5.9102 15.5898 9.1346 13.3977 6.257 16.5279 11.916 14.6886 12.5291 10.9028 10.3228 4.5045 2.5424 4.5643 3.183 3.0817 3.7768 4.3733 3.8282 2.7511 2.5849 3.3812 5.1358 2.5478 7.1573 15.5254 14.5683 19.1337 6.2177 17.86 15.0048 9.6525 7.156 6.6244 9.3767 2.893 1.053 3.4286 3.612 4.4026 2.2306 2.5518 1.8746 3.8374 3.8604 2.323 2.5702 4.2494 1.4724 4.4336 5.1358 4.708 6.8649 6.0168 5.7894 3.9395 2.8198 3.9298 2.8733 1.4111 1.4837 2.4634 2.4862 3.8313 3.6235 2.1774 3.2212 2.0849 4.2901 3.1377 1.7447 2.5008 3.1021 2.7933 1.407 2.4525 2.4907 3.2773 2.8467 3.1591 2.0035 3.2483 0.9436 1.3554 3.2175 3.2586 3.6465 4.11 3.0796 2.0869 3.5424 1.8361 2.5675 1.2032 3.3958 4.0742 4.7928 4.0605 13.0942 14.158 6.0888 16.3622 11.4844 12.4361 15.6467 4.0533 9.6293 3.416 1.9406 3.6959 4.6523 2.6195 3.8997 3.0651 2.4814 4.9449 3.4183 3.6306 4.0266 3.7054 6.6647 8.4347 16.4406 17.0184 20.311 14.9681 21.0094 12.1097 11.1335 14.2565 5.4747 3.4641 2.9654 1.9329 1.4021 4.0896 4.5841 2.7592 1.3728 4.2254 1.3842 3.2602 2.9633 3.5108 4.4368 9.6297 5.6658 5.417 16.6203 13.9584 12.5672 11.8543 9.9788 6.8918 8.9396 2.4109 4.2921 4.2898 1.3913 2.7361 1.3531 1.343 4.4146 1.8568 4.5149 3.0423 4.2574 4.5764 6.1595 6.3377 6.4978 22.2333 19.5959 18.2966 12.4101 15.3333 17.3988 10.8111 10.0459 3.4562 2.8484 3.5274 2.3614 3.6404 3.7459 1.2697 4.2358 2.3664 3.378 3.3747 3.3177 4.2127 7.9671 8.7127 12.703 18.7762 5.1903 11.3823 16.3975 16.2258 15.6112 5.6946 9.3937 2.2643 1.2199 2.6615 3.7961 3.3384 1.2793 1.8484 4.0117 2.9378 3.1324 2.9578 4.2906 3.9516 3.489 4.5795 7.7694 10.6682 9.9757 8.6865 4.5126 1.4758 3.2106 2.4681 2.3922 1.4236 3.1175 3.0825 2.1057 3.6431 1.1947 1.751 1.1928 2.2378 4.0765 3.5618 2.829 3.0009 1.5631 0.9963 2.9654 1.7789 3.3384 2.7792 3.0893 3.1946 2.4521 3.2772 3.2417 0.9595 2.2032 3.4608 3.7897 2.1519 3.278 4.1463 3.3456 4.188 2.0829 3.1003 1.2377 4.0969 2.5847 3.4426 5.3218 7.4011 14.8963 11.6118 5.5562 10.801 17.3388 4.2776 11.6174 4.1497 3.8255 4.4679 3.5641 1.7729 2.6014)

//----------------------------------------------------------------------------------------------------------------------//
New LoadShape.1004_loadcurve interval=1 npts=1056 useactual=Yes
~ mult=(6.913 6.73 6.833 6.941 6.915 6.691 7.306 11.51 14.474 19.695 19.69 18.02 17.975 12.407 9.221 10.019 8.176 6.436 6.496 6.618 6.564 6.52 6.101 7.343 6.814 7.593 7.336 7.123 7.076 6.901 6.597 7.317 11.626 16.366 18.135 16.588 15.386 14.236 13.907 16.157 14.335 13.464 7.873 7.185 7.936 6.919 6.411 6.822 6.748 6.854 6.623 7.103 6.741 6.869 7.067 7.524 10.462 15.113 16.377 16.232 14.81 15.193 16.067 15.507 15.607 13.907 6.753 5.992 6.381 5.872 6.123 5.944 6.289 7.267 6.602 7.072 6.639 6.532 6.455 7.235 10.152 16.482 20.433 19.473 17.649 14.771 19.286 16.012 13.335 17.229 15.327 16.279 14.527 9.949 6.35 6.428 6.545 6.311 6.184 5.655 6.094 6.126 6.027 6.82 8.86 20.959 23.172 15.936 15.856 16.66 13.366 15.093 14.407 12.837 6.913 6.283 5.972 5.719 5.876 5.838 5.987 5.87 5.722 6.044 5.965 5.834 5.767 6.692 9.679 18.577 22.413 20.684 17.0 15.627 13.858 15.216 13.187 13.904 10.164 9.081 8.658 5.949 5.54 5.746 5.736 5.722 5.934 5.76 5.823 5.702 5.497 9.368 9.08 10.671 9.461 9.409 9.068 7.945 5.422 5.667 5.39 6.36 5.749 5.942 5.962 5.774 5.633 5.722 5.767 5.921 6.01 5.845 6.066 6.095 9.397 15.492 21.296 20.148 18.404 17.166 12.413 10.965 10.607 5.657 6.072 5.567 5.436 6.079 5.622 5.579 5.524 5.646 5.483 6.712 6.695 6.571 6.427 6.725 6.582 9.435 14.611 15.614 14.733 13.934 13.012 14.804 12.977 12.854 13.449 7.36 6.904 7.065 6.839 6.637 6.82 7.035 7.211 6.188 6.135 6.156 6.059 5.961 5.836 8.09 17.224 17.677 16.953 15.701 14.638 15.682 15.037 13.142 13.404 8.626 5.749 6.448 5.776 6.766 6.124 6.813 6.707 7.293 7.489 7.586 8.178 8.101 7.242 11.18 18.83 21.873 20.73 17.26 17.575 16.156 15.847 14.67 14.984 13.527 15.384 15.745 9.636 6.637 5.949 6.198 6.203 6.245 6.522 6.415 6.112 6.061 6.056 10.102 19.652 20.298 17.247 18.72 16.794 17.424 14.381 12.616 13.495 9.275 6.777 6.17 5.779 5.701 5.467 5.647 6.268 5.709 5.53 6.047 5.696 5.753 5.422 10.438 17.932 18.818 16.62 16.526 13.752 14.844 14.403 14.714 13.254 10.636 11.056 8.851 8.467 8.236 5.929 5.779 5.523 5.849 5.677 5.699 5.526 5.622 6.071 6.401 5.447 5.362 5.305 5.491 5.247 5.481 5.36 5.566 5.174 5.452 5.082 5.292 5.442 5.315 5.687 5.734 5.417 5.279 5.751 5.636 5.972 5.428 5.913 11.496 14.805 15.124 14.603 14.544 12.474 9.584 6.139 4.583 5.363 5.079 5.354 5.63 6.388 6.155 6.167 6.201 5.3 5.904 5.662 5.513 5.802 5.942 6.005 9.76 17.295 15.393 16.206 13.834 13.164 12.642 12.526 13.108 12.406 6.622 7.907 8.119 8.43 8.195 7.989 6.245 6.046 6.164 6.675 5.929 6.523 5.888 6.498 9.726 15.356 16.773 14.885 14.652 13.23 15.217 14.698 14.13 12.957 6.491 5.559 5.398 5.595 5.395 5.418 5.307 5.413 6.547 6.083 6.894 6.004 6.343 7.093 9.549 15.805 20.718 17.154 16.098 15.86 18.908 15.435 15.429 15.579 9.889 13.141 13.831 9.864 7.212 7.614 7.561 6.573 5.877 6.257 5.763 5.939 6.004 6.075 11.091 19.912 21.889 21.794 17.823 19.278 17.383 14.305 14.074 13.565 9.761 7.461 7.074 6.844 6.113 6.032 6.159 6.09 6.098 6.354 6.122 6.095 6.079 6.845 11.256 16.198 20.238 22.009 21.365 16.733 18.673 16.997 14.398 11.871 9.482 7.501 5.73 5.914 6.032 5.738 5.973 6.286 5.928 5.82 5.928 5.755 5.988 5.882 7.114 5.917 6.118 5.52 5.824 5.896 5.5 6.848 5.5 5.958 6.727 6.096 5.674 6.559 5.866 5.732 5.844 5.917 5.577 5.872 6.167 6.273 6.002 8.12 12.335 15.137 17.206 16.986 18.871 12.991 7.028 4.935 5.541 5.431 5.37 4.789 5.6 5.053 5.527 5.206 5.443 5.2 6.603 5.771 6.083 5.785 6.019 6.547 8.499 15.742 16.431 14.465 12.699 13.068 14.336 13.439 12.449 11.328 6.535 6.94 7.429 7.428 6.74 5.428 5.472 5.419 5.295 5.468 5.226 5.845 5.413 5.369 7.88 15.592 16.655 16.35 14.411 14.599 16.239 14.19 12.958 14.077 9.228 8.594 5.376 7.904 7.794 8.138 5.294 5.397 6.116 6.06 5.648 6.132 5.9 5.653 10.063 20.566 19.26 20.152 18.072 20.226 17.561 15.118 15.198 12.464 8.998 12.52 9.944 7.339 6.652 5.93 6.065 6.155 5.843 5.588 6.281 5.561 6.551 5.737 9.747 19.137 20.225 18.519 15.972 17.103 15.933 17.525 15.502 11.938 7.688 5.716 5.435 5.631 5.503 5.295 5.442 5.524 5.65 5.32 5.18 5.622 5.302 5.406 9.866 16.01 19.261 16.44 14.733 14.31 13.766 11.666 11.22 9.876 6.388 4.896 5.361 5.336 4.999 5.146 5.031 5.749 5.136 4.982 5.196 5.223 5.138 5.236 6.155 5.067 5.028 4.955 4.832 5.149 5.026 4.801 5.224 5.223 5.661 5.764 5.166 5.087 5.45 5.23 4.768 4.835 4.95 4.992 4.733 4.994 4.745 6.835 11.394 16.449 15.184 14.033 15.642 15.935 11.951 6.954 5.499 5.282 5.588 5.255 6.036 5.389 5.749 5.395 5.612 5.553 6.642 6.072 6.011 5.655 5.728 5.622 11.743 17.3 18.518 14.622 13.499 14.776 15.138 15.958 15.289 12.662 8.504 9.236 8.888 6.895 5.919 5.908 6.214 5.913 5.661 6.023 6.256 5.786 6.088 5.838 9.06 13.326 15.9 14.683 13.555 13.088 13.238 13.866 12.976 13.841 6.454 5.72 5.291 5.289 5.355 5.631 5.404 5.547 5.978 5.568 5.698 6.097 5.944 5.644 9.39 15.674 20.959 20.433 14.843 13.008 15.524 14.599 14.532 16.651 13.952 15.406 13.638 7.216 5.53 5.005 5.556 5.19 5.748 5.133 5.539 5.589 5.646 2.401 7.777 18.086 19.356 19.492 20.679 18.647 16.533 18.765 14.791 11.882 5.961 5.055 5.008 5.53 4.945 5.126 5.006 5.905 5.15 6.206 5.882 5.557 5.705 5.794 9.205 18.952 18.7 18.777 24.798 20.138 18.751 17.118 16.525 16.768 10.442 9.959 10.961 11.69 11.033 11.088 7.453 7.82 7.656 9.503 8.658 8.26 7.995 9.243 12.101 10.078 7.512 4.888 4.855 5.169 5.414 4.871 4.932 4.99 5.235 4.887 5.09 5.14 5.072 5.077 5.188 5.222 5.329 4.94 5.041 5.15 5.037 6.998 9.836 16.968 16.316 15.296 14.541 14.986 11.897 8.308 4.937 5.087 4.912 4.951 5.113 5.052 4.627 5.118 5.005 4.873 5.611 5.078 5.549 5.105 5.176 5.81 6.844 12.265 12.24 13.054 12.921 12.517 12.27 12.396 12.648 11.11 5.843 7.453 7.448 6.67 5.657 5.911 5.584 5.975 5.364 5.834 5.783 5.464 5.803 5.731 9.069 15.74 16.114 14.852 14.95 15.081 14.628 14.93 13.452 11.765 6.485 5.201 5.006 5.262 5.331 5.073 4.919 5.169 5.849 5.405 5.681 5.705 5.599 5.928 8.589 17.171 21.438 17.238 15.395 18.404 15.685 14.974 17.102 16.238 11.288 11.37 12.23 7.025 5.804 5.386 5.551 5.156 4.847 5.041 4.911 4.807 5.521 4.945 7.458 15.768 16.89 19.229 17.415 15.484 13.447 14.78 13.089 12.066 6.22 5.181 5.224 5.0 4.916 5.085 4.837 4.899 5.043 5.34 4.964 4.923 4.915 5.054 7.9 13.77 14.763 13.351 11.647 13.302 14.811 14.754 13.822 10.094 6.218 6.004 6.928 9.655 5.463 4.885 4.921 5.428 4.921 4.982 5.485 5.037 4.909 5.207 4.97 6.908 9.492 9.859 8.872 7.569 5.866 5.932 4.754 4.986 5.192 5.27 4.847 5.052 4.89 4.997 4.927 4.724 4.954 5.419 4.947 4.741 4.924 5.36 10.028 18.149 15.556 12.422 12.559 7.8 5.314 4.669 4.956 5.823 5.219 4.884 4.872 4.923 5.027 4.893 4.724 5.035 4.857 5.622 4.906 5.19 5.176 4.834 8.442 13.737 12.926 14.181 11.536 11.384 13.492 13.826 13.755 12.476 7.052 7.19 8.231 7.401 5.862 5.031 5.172 )
~ Qmult=(2.9449 2.6599 3.3094 3.3617 2.2729 3.0485 2.1309 2.3372 7.0101 3.9992 3.9982 2.5677 8.1897 4.5031 3.0308 1.4276 2.0491 0.9171 3.1462 1.6586 1.6451 2.9706 1.5291 2.4135 3.3002 3.4595 2.8994 2.8152 3.0144 2.5047 2.6073 2.405 4.9527 5.9401 7.1674 7.0665 5.0571 2.0285 5.9244 3.2808 6.9428 1.9185 3.3539 3.2736 1.1308 2.018 2.3269 2.4761 2.218 2.2528 2.8214 2.8073 2.8717 3.3268 2.3228 2.9737 4.1348 4.408 5.3829 4.7343 5.3753 3.0851 4.6862 6.1288 5.6646 5.4964 0.9623 1.7477 2.0973 2.6754 2.6084 1.4897 3.0459 3.0957 3.008 3.4251 2.8282 0.9308 2.7498 1.4691 2.961 7.9826 5.9596 4.8804 4.4233 7.1539 6.9999 6.8211 4.383 5.6629 6.0576 4.0799 6.1885 4.2383 2.5097 2.3331 1.329 1.5817 2.0326 0.8058 1.7774 2.6097 1.981 1.3849 4.0367 2.9865 9.8712 3.9939 5.2116 8.0688 4.8512 2.1506 4.7354 3.7441 2.7322 2.6765 2.1675 1.668 1.9313 1.4631 1.5005 1.9294 2.4376 1.9866 2.165 2.1175 2.2793 1.3589 1.3792 4.6558 3.1937 5.1839 7.7454 7.1199 5.477 6.9326 1.879 1.9812 3.3407 3.8685 3.1424 2.8812 1.6158 2.4478 2.6134 1.1619 2.874 1.68 2.4806 0.8125 0.7833 1.9023 3.2956 2.1668 4.3106 3.415 2.6448 1.6133 0.7726 1.1507 0.768 2.7093 1.8896 2.1567 2.8875 1.4471 2.2263 2.7713 2.6275 1.4839 2.7382 1.9212 1.5203 1.7777 2.7408 6.5996 9.0721 4.0912 4.6125 7.8211 5.2879 5.3106 3.8498 0.8061 2.7665 2.6962 2.3157 1.5235 1.8479 1.6272 1.1217 1.1465 1.3742 2.2061 2.2005 2.1598 1.6108 1.3656 1.6496 4.2987 6.2243 6.171 2.0993 4.5799 5.9284 5.8509 5.9125 4.6654 3.3706 3.3533 2.2692 2.0606 1.3887 2.8274 2.6954 1.4285 1.8072 2.0339 2.6135 2.0234 2.7606 2.5394 1.9182 1.6427 4.3167 6.4159 5.5722 6.6886 4.2694 3.9303 7.2828 4.3196 5.7101 1.7516 1.1674 3.1229 2.4606 0.9641 1.2435 2.9023 1.6809 1.4809 1.5207 2.7534 1.6606 3.2017 2.8622 1.5931 5.4921 5.4819 10.04 6.8216 5.126 5.8638 6.7508 5.3245 4.3703 5.7625 3.8556 5.1751 2.415 3.2144 1.7351 2.0372 2.2514 2.8453 2.1437 2.3283 2.7847 1.7678 1.5178 2.0513 7.1327 5.9203 3.5022 7.9747 6.6374 6.8864 6.965 5.748 5.3336 1.3216 2.2275 1.2529 0.8235 2.5975 1.7969 2.5728 2.4773 2.6011 0.788 1.7637 0.8116 2.7863 2.1429 3.7885 5.2302 7.4373 7.5723 2.3548 4.5201 3.0142 2.9247 2.0966 4.8106 5.1512 4.3696 4.0326 1.2065 2.9893 2.3433 2.284 1.6109 2.1229 1.1528 2.5965 2.5177 1.409 2.3994 2.1039 2.3204 2.443 2.2599 1.3762 0.7477 1.113 1.5633 2.5359 1.7006 2.3225 2.1649 2.563 1.5873 1.3321 0.8104 1.1643 1.58 1.7351 2.6202 1.6438 1.2127 2.6289 2.1461 1.6381 3.0063 5.9774 4.7998 5.7482 5.6833 1.3656 2.0178 0.653 1.9465 2.3141 1.7598 2.2251 1.601 2.622 2.6271 1.5541 1.742 2.6899 0.8068 2.3485 1.1781 2.7073 1.505 3.8574 6.8354 6.0837 6.9037 5.0211 5.9977 4.1552 5.3361 1.8678 3.6184 2.1765 3.3684 2.9468 1.2012 1.1677 2.3301 1.5651 0.8615 0.8783 2.194 0.8448 2.5781 2.8517 0.9259 1.9749 2.1881 8.1235 7.2091 5.318 4.8018 3.8137 6.2613 4.6443 4.2588 1.8932 1.6214 2.1334 1.839 1.5735 1.9665 1.5479 2.4662 1.3294 1.2352 2.0107 2.9079 1.5897 1.0107 4.3507 7.201 8.1883 6.2261 7.3345 6.2683 2.6942 5.0732 5.0713 6.1572 2.4784 5.9872 5.4664 2.877 2.3705 2.7635 2.4852 2.8001 2.6776 2.0566 2.2777 2.8764 1.7512 1.7719 2.7797 9.0722 9.3247 7.1633 4.4669 4.8315 5.07 6.5176 2.0054 4.4586 3.8578 1.0631 2.5675 3.1182 2.416 2.9214 1.7964 1.5263 2.5977 2.7068 2.0122 2.0033 2.2064 1.9965 3.283 4.7244 2.8838 4.4691 9.7342 6.0733 2.6608 2.4219 5.6905 3.4624 3.4415 3.6329 2.6107 1.4822 2.7483 2.6143 2.5445 3.0444 2.3429 1.4586 2.1516 0.82 2.3666 2.3247 1.0137 2.1476 2.418 2.3515 2.481 1.9379 2.6638 3.12 1.9962 2.3548 2.2111 2.5969 1.1522 0.9346 1.1911 2.0804 2.3097 2.5206 0.7947 2.5015 1.2523 1.8296 1.2188 1.6488 3.5977 5.494 5.6553 7.236 5.504 3.2559 2.0498 1.0021 1.6161 2.3136 1.5662 1.8927 2.3856 1.6608 2.006 2.2177 1.3641 1.3032 3.198 1.8968 1.9994 2.8018 1.2222 2.789 1.7258 6.7061 3.3365 4.219 5.019 5.1648 2.911 4.4172 4.9202 2.8391 1.6378 2.2811 3.1647 1.0584 2.8712 2.1453 2.6502 1.7811 1.3271 1.3704 2.2263 1.4649 1.9647 2.122 3.5902 6.1624 3.3819 5.374 4.7367 7.0706 4.7364 4.664 4.2591 2.0059 1.3149 2.8247 2.1247 2.8688 3.3202 3.9414 2.0923 1.7739 2.2198 1.7675 1.8564 2.6122 0.8407 2.7379 4.2868 8.7611 4.827 6.6236 5.94 6.648 6.9406 4.969 3.0861 1.776 3.8331 3.1378 3.6092 2.9006 2.1864 1.2041 2.5837 1.7952 1.9205 2.2085 2.2797 0.7924 1.9107 2.7786 4.1522 6.9458 6.6476 6.0869 4.6585 8.2834 4.6471 6.9263 7.0629 5.4391 1.5611 2.2591 2.4763 1.6424 2.1749 2.5645 2.3183 2.6754 1.6479 2.2663 2.2067 1.409 2.4157 2.3029 3.2428 5.8109 6.3308 7.0034 7.1355 4.7035 4.5247 4.2342 1.5988 2.0054 0.9102 1.428 2.2838 1.5563 1.0151 2.3446 0.7169 2.6193 2.1879 1.969 1.0551 1.5234 0.7321 1.9004 1.2498 2.0026 1.2601 2.2576 1.4093 1.5018 1.4659 0.9749 1.717 1.5234 2.5792 2.4555 2.2007 1.8463 1.5896 1.8982 1.195 2.3417 2.3974 1.0137 1.1862 2.1274 2.0214 2.4808 4.1355 7.0072 5.5111 5.978 5.6773 5.7836 5.7881 2.524 1.9959 2.5582 1.8367 1.9073 1.9839 2.61 2.4491 2.2983 2.3907 2.6894 3.2169 0.8652 1.2206 1.1483 2.7742 1.6398 5.3503 6.2791 2.6387 5.3071 2.7411 5.8398 4.9756 3.2404 6.5131 5.394 2.4803 2.6938 2.5923 3.3394 1.4834 1.7232 2.4559 1.9435 2.4116 0.8582 1.5679 2.4648 1.5258 2.1189 2.9779 6.4541 3.9849 3.6799 6.1758 5.9631 6.0314 4.5575 5.5278 6.7035 2.9405 0.8151 1.326 2.0903 1.5619 2.3988 1.7762 1.6179 1.4982 1.1306 2.7597 2.4097 2.1574 1.6462 1.338 2.2334 7.6071 7.4162 4.3292 2.6414 4.5278 2.0802 2.0707 7.5864 3.4967 6.5629 4.4826 3.2877 0.788 2.2803 1.6205 1.5137 0.819 1.863 2.5236 1.1349 2.5724 0.6017 1.5792 5.2751 2.7581 6.4067 6.0314 4.6734 8.0073 3.8104 3.0034 5.0617 0.8494 1.9979 2.1334 1.6129 2.253 1.6848 2.4245 0.8414 2.4943 1.8101 2.3247 2.3673 1.8751 2.1029 3.9213 5.5277 7.3907 7.999 8.1507 9.7533 5.469 2.4392 5.4315 8.1211 4.4483 3.2734 4.3321 4.6202 4.7 4.3823 2.1738 1.5879 2.7788 4.3297 2.1699 2.4092 1.6235 1.8769 4.3921 1.436 1.5254 0.9926 0.6918 2.5035 2.3064 1.9251 0.7028 2.1257 2.5354 1.7737 1.0336 2.4894 1.4793 1.0309 2.5127 2.5291 1.9342 1.9524 1.9923 2.3464 1.4691 0.9972 4.4814 8.218 6.9506 6.0454 6.6251 6.384 3.9104 2.0822 2.1032 1.4837 1.2311 2.2557 2.1781 2.3018 1.3495 1.8576 1.0163 2.2202 2.3903 2.1632 2.5282 2.1747 2.0457 1.9097 2.9155 5.2249 4.4425 4.738 3.7686 5.3322 4.033 5.2807 4.9988 1.5831 2.8299 1.062 2.448 0.9504 2.2358 2.6931 2.5441 1.7427 0.7643 2.1175 2.4635 1.3694 2.6439 1.8837 1.8415 7.6232 6.8645 4.8816 4.3604 4.9569 5.3093 5.4189 1.9168 5.3603 1.6253 2.0556 1.0165 1.0685 1.0825 1.0301 1.4347 1.2955 2.8328 1.5765 2.5883 0.8129 0.7978 2.8711 3.1174 5.0082 8.4728 2.4563 6.0845 6.6798 7.5966 6.8224 8.2829 4.0696 3.7102 4.8436 4.4389 1.4265 1.4546 2.6086 2.3647 1.6947 2.0648 2.4415 1.7825 2.0478 1.6103 2.1066 2.4513 7.1841 7.6953 4.8192 3.5363 4.5162 3.922 2.106 6.3393 5.8438 3.0125 1.2985 0.7444 1.8148 2.2398 1.6714 2.3427 0.9948 1.6576 2.5863 1.9619 1.4359 1.4335 1.9975 1.1257 5.4423 7.15 5.2767 5.3065 1.8954 3.0075 3.6977 4.0314 4.8887 0.886 2.5577 2.2771 1.9605 1.1093 1.2243 1.9449 1.3604 1.7861 1.969 1.9908 2.2949 1.4318 0.742 1.8039 3.1474 4.3247 4.4919 4.2969 2.9915 1.1911 1.7302 2.166 2.2717 2.3655 1.0701 2.3475 2.4468 2.2279 0.712 2.2448 2.0124 1.2416 2.469 2.1074 1.3828 0.7016 2.596 3.296 3.6853 6.1481 2.5224 3.663 3.0828 0.7572 2.1273 1.7988 0.8297 2.3778 2.3654 1.421 1.4359 1.8246 1.6083 1.5527 1.2619 1.2173 0.8011 0.6991 1.7059 2.5069 2.3412 4.0886 6.6531 5.8893 6.8682 4.187 5.5135 4.4346 4.0326 6.6619 5.6842 2.3179 3.4823 3.7502 1.5028 0.8353 2.2922 2.2033)

//----------------------------------------------------------------------------------------------------------------------//
New LoadShape.1005_loadcurve interval=1 npts=1056 useactual=Yes