// This file is to define load shape curves.


//***************************************************************************************//
//                                             Feeder A
//***************************************************************************************//
//----------------------------------------------------------------------------------------------------------------------//
New LoadShape.1003_loadcurve interval=1 npts=24 useactual=Yes
~ mult=(14.379 13.912 14.117 14.013 14.394 13.644 13.339 14.728 24.786 33.609 48.844 44.901 48.301 41.992 45.989 46.402 46.245 37.172 27.896 13.622 12.101 12.822 12.346 12.216 )
~ Qmult=(3.6037 6.7379 4.64 2.8455 5.6889 6.2164 6.0774 4.8409 6.212 4.789 9.9182 13.0961 19.0898 15.2411 9.3385 21.1414 18.2772 7.5481 6.9914 2.7661 2.4572 5.8419 5.9794 4.0152)

//----------------------------------------------------------------------------------------------------------------------//
New LoadShape.1004_loadcurve interval=1 npts=24 useactual=Yes
~ mult=(6.814 7.593 7.336 7.123 7.076 6.901 6.597 7.317 11.626 16.366 18.135 16.588 15.386 14.236 13.907 16.157 14.335 13.464 7.873 7.185 7.936 6.919 6.411 6.822 )
~ Qmult=(3.3002 3.4595 2.8994 2.8152 3.0144 2.5047 2.6073 2.405 4.9527 5.9401 7.1674 7.0665 5.0571 2.0285 5.9244 3.2808 6.9428 1.9185 3.3539 3.2736 1.1308 2.018 2.3269 2.4761)

//----------------------------------------------------------------------------------------------------------------------//
New LoadShape.1005_loadcurve interval=1 npts=24 useactual=Yes
~ mult=(3.335 3.111 3.227 3.09 3.171 2.938 3.002 6.615 21.763 23.485 22.291 20.577 22.172 20.208 24.344 26.1 23.605 25.358 6.694 4.171 3.517 3.474 5.345 3.24 )
~ Qmult=(0.9727 1.5067 0.6553 1.4078 0.4518 1.0664 0.6096 2.6144 9.271 8.5239 10.1561 9.3752 10.7384 5.894 8.8357 11.8915 10.0557 5.1492 1.6777 1.7768 1.156 1.5828 2.4353 0.945)

//----------------------------------------------------------------------------------------------------------------------//
New Loadshape.1006_1_loadcurve interval=1 npts=24 useactual=Yes
~ mult=(1.66 2.02 1.8 1.62 1.84 1.86 1.78 2.42 7.76 9.02 9.42 11.3 9.08 8.78 8.62 9.66 9.92 6.96 3.48 1.26 1.5 1.38 1.66 1.74 )
~ Qmult=(0.5456 0.8605 0.6533 0.2308 0.2622 0.265 0.6461 0.9564 1.1057 1.2853 2.7475 4.466 4.3976 2.2005 3.1286 3.1751 1.4135 0.9917 1.3754 0.498 0.7265 0.3459 0.4842 0.3533)

//----------------------------------------------------------------------------------------------------------------------//
New Loadshape.1006_2_loadcurve interval=1 npts=24 useactual=Yes
~ mult=(1.66 2.02 1.8 1.62 1.84 1.86 1.78 2.42 7.76 9.02 9.42 11.3 9.08 8.78 8.62 9.66 9.92 6.96 3.48 1.26 1.5 1.38 1.66 1.74 )
~ Qmult=(0.5456 0.8605 0.6533 0.2308 0.2622 0.265 0.6461 0.9564 1.1057 1.2853 2.7475 4.466 4.3976 2.2005 3.1286 3.1751 1.4135 0.9917 1.3754 0.498 0.7265 0.3459 0.4842 0.3533)

//----------------------------------------------------------------------------------------------------------------------//
New Loadshape.1007_1_loadcurve interval=1 npts=24 useactual=Yes
~ mult=(1.542 1.4575 1.3845 1.411 1.2685 1.402 1.43 1.5185 1.7345 1.909 1.5005 1.139 1.3615 1.385 2.2915 1.9485 1.1555 1.831 1.8905 2.1225 2.0 1.9865 2.0585 1.7635 )
~ Qmult=(0.5597 0.529 0.6308 0.4115 0.4169 0.4608 0.3584 0.5511 0.4347 0.8698 0.593 0.1623 0.194 0.4552 0.9057 0.8301 0.5265 0.6018 0.8053 0.3024 0.6574 0.7851 0.5159 0.3581)

//----------------------------------------------------------------------------------------------------------------------//
New Loadshape.1007_2_loadcurve interval=1 npts=24 useactual=Yes
~ mult=(1.542 1.4575 1.3845 1.411 1.2685 1.402 1.43 1.5185 1.7345 1.909 1.5005 1.139 1.3615 1.385 2.2915 1.9485 1.1555 1.831 1.8905 2.1225 2.0 1.9865 2.0585 1.7635 )
~ Qmult=(0.5597 0.529 0.6308 0.4115 0.4169 0.4608 0.3584 0.5511 0.4347 0.8698 0.593 0.1623 0.194 0.4552 0.9057 0.8301 0.5265 0.6018 0.8053 0.3024 0.6574 0.7851 0.5159 0.3581)

//----------------------------------------------------------------------------------------------------------------------//
New LoadShape.1008_loadcurve interval=1 npts=24 useactual=Yes
~ mult=(5.201 4.95 5.144 5.222 4.923 4.814 5.371 7.858 8.843 10.389 12.01 13.056 13.657 12.973 14.666 18.788 17.037 14.351 8.109 5.289 4.878 4.953 4.546 4.576 )
~ Qmult=(2.2156 2.1087 1.2892 0.7441 2.0972 2.1933 0.7653 1.5956 4.2829 2.6037 4.7467 6.3233 6.6144 3.7838 6.682 6.8191 6.1836 4.1857 1.6466 2.0903 1.2225 1.9576 1.7967 1.9494)

//----------------------------------------------------------------------------------------------------------------------//
New LoadShape.1009_loadcurve interval=1 npts=24 useactual=Yes
~ mult=(8.695 8.504 8.57 7.684 8.003 8.233 8.688 7.647 8.091 8.833 8.103 8.777 8.513 7.572 7.516 6.741 6.345 7.611 7.624 7.198 6.727 8.494 7.862 7.559 )
~ Qmult=(4.2112 2.1313 1.7402 1.5603 2.0057 2.0634 1.238 3.2576 1.1529 1.7936 1.6454 3.9989 2.483 3.6673 2.7279 0.9605 1.8506 3.2423 1.9108 2.0994 1.6859 2.1288 1.5964 3.2201)

//----------------------------------------------------------------------------------------------------------------------//
New LoadShape.1010_loadcurve interval=1 npts=24 useactual=Yes
~ mult=(4.55 4.455 3.887 5.1 3.863 4.816 4.135 3.958 3.904 3.907 1.697 2.046 2.224 2.005 2.119 2.07 3.269 1.929 2.795 3.036 3.334 3.509 3.306 5.888 )
~ Qmult=(2.2037 1.7607 1.5362 1.2782 1.1267 2.3325 1.7615 1.1544 0.7927 1.1395 0.495 0.2915 0.731 0.9135 0.618 0.5188 0.8193 0.7001 1.1907 1.1999 1.6147 0.5 1.0866 2.6827)

//----------------------------------------------------------------------------------------------------------------------//
New LoadShape.1011_loadcurve interval=1 npts=24 useactual=Yes
~ mult=(3.008 3.033 2.774 3.063 2.946 3.272 3.915 2.908 4.126 5.083 4.592 4.84 5.102 4.103 4.612 2.608 3.248 4.33 4.592 5.734 6.375 4.641 4.766 2.733 )
~ Qmult=(0.4286 0.7601 0.8091 1.3048 1.0693 1.4908 1.7837 1.3249 1.7577 2.4618 1.1509 1.213 2.471 1.8694 1.1559 1.1882 1.5731 1.5716 0.9324 2.7771 0.9084 0.6613 1.3901 1.1643)

//----------------------------------------------------------------------------------------------------------------------//
New LoadShape.1012_loadcurve interval=1 npts=24 useactual=Yes
~ mult=(2.868 1.825 1.311 1.001 1.257 1.78 3.625 4.356 2.269 2.219 5.483 7.656 6.26 8.22 3.454 5.489 3.987 4.596 9.689 12.176 7.978 4.329 2.473 3.253 )
~ Qmult=(1.2218 0.4574 0.5973 0.292 0.315 0.5851 1.6516 1.581 0.3233 0.9453 1.1134 2.233 3.0319 1.6691 1.5737 1.8041 1.5758 1.9579 4.4144 1.735 1.1368 1.4229 1.1267 1.0692)

//----------------------------------------------------------------------------------------------------------------------//
New LoadShape.1013_loadcurve interval=1 npts=24 useactual=Yes
~ mult=(2.552 2.206 2.073 2.171 2.798 2.243 2.353 2.381 2.263 5.2 2.423 1.884 2.382 1.651 1.648 1.601 1.546 1.971 2.172 2.421 2.505 3.204 2.53 2.291 )
~ Qmult=(0.5182 0.6434 1.004 0.3094 1.3551 0.7372 0.854 0.3393 1.096 2.0552 0.9576 0.9125 1.0147 0.7033 0.413 0.5262 0.7488 0.6478 0.7139 0.9568 1.0671 1.4598 1.2253 0.4652)

//----------------------------------------------------------------------------------------------------------------------//
New LoadShape.1014_loadcurve interval=1 npts=24 useactual=Yes
~ mult=(0.407 0.275 0.287 0.254 0.227 0.28 0.231 0.437 0.398 0.193 0.301 0.275 1.212 0.72 0.617 0.472 0.619 0.754 0.611 0.831 0.614 0.477 0.408 0.405 )
~ Qmult=(0.1187 0.1087 0.0719 0.0516 0.1099 0.0399 0.0579 0.1991 0.1445 0.0275 0.0754 0.0802 0.2461 0.2367 0.0879 0.2286 0.2446 0.189 0.2008 0.2424 0.2974 0.1391 0.1481 0.0822)

//----------------------------------------------------------------------------------------------------------------------//
New LoadShape.1015_loadcurve interval=1 npts=24 useactual=Yes
~ mult=(0.417 0.401 0.516 0.399 0.47 0.37 0.515 2.018 0.638 0.202 0.303 0.216 0.302 0.328 0.329 0.344 0.359 2.929 0.596 0.818 0.855 2.739 0.907 2.315 )
~ Qmult=(0.1514 0.1318 0.1293 0.1932 0.2002 0.0527 0.1291 0.2875 0.2097 0.0861 0.1198 0.0439 0.1463 0.0666 0.0668 0.1249 0.1303 0.9627 0.2539 0.1166 0.3379 0.6865 0.3585 0.5802)

//----------------------------------------------------------------------------------------------------------------------//
New LoadShape.1016_loadcurve interval=1 npts=24 useactual=Yes
~ mult=(2.868 1.825 1.311 1.001 1.257 1.78 3.625 4.356 2.269 2.219 5.483 7.656 6.26 8.22 3.454 5.489 3.987 4.596 9.689 12.176 7.978 4.329 2.473 3.253 )
~ Qmult=(0.7188 0.8839 0.2662 0.3956 0.2552 0.3614 0.7361 1.8556 0.3233 0.6472 1.5992 2.7788 3.0319 2.0601 0.4922 1.8041 1.1629 0.6549 4.1275 4.0021 2.6222 1.8441 0.6198 0.9488)

//----------------------------------------------------------------------------------------------------------------------//
New LoadShape.1017_loadcurve interval=1 npts=24 useactual=Yes
~ mult=(2.471 2.745 2.423 2.213 4.086 2.404 2.739 3.537 3.034 4.812 6.73 3.985 2.589 5.807 4.408 3.461 2.1 3.562 4.849 3.307 5.364 3.765 4.505 2.073 )
~ Qmult=(0.9766 0.9022 1.104 0.4494 1.9789 0.8725 0.6865 1.1626 1.2925 1.7465 3.0663 1.3098 1.1029 1.6937 1.8778 1.1376 0.5263 0.8927 0.9846 1.5067 2.5979 1.488 1.9191 0.8831)


//***************************************************************************************//
//                                             Feeder B
//***************************************************************************************//
//----------------------------------------------------------------------------------------------------------------------//
New LoadShape.2002_loadcurve interval=1 npts=24 useactual=Yes
~ mult=(41.28 43.38 40.42 40.5 40.4 40.74 42.12 44.1 124.36 196.34 242.82 237.54 232.34 203.66 221.22 184.54 114.86 84.7 32.86 27.36 26.42 26.1 26.14 28.38 )
~ Qmult=(10.3457 21.0099 19.5763 8.2239 13.2788 14.7866 20.3996 14.495 60.2303 95.0918 110.6321 101.1916 33.1067 92.7902 80.2921 46.2501 45.3956 41.0221 6.6725 8.9928 10.4419 3.719 9.4876 5.7628)

//----------------------------------------------------------------------------------------------------------------------//
New LoadShape.2003_loadcurve interval=1 npts=24 useactual=Yes
~ mult=(12.431 12.235 10.834 10.517 10.705 10.522 10.734 17.179 27.464 24.362 21.35 22.138 29.734 22.017 20.982 21.465 22.516 23.951 17.089 16.54 16.143 11.923 10.866 11.376 )
~ Qmult=(4.913 4.0215 3.9322 3.0675 2.1737 1.4993 3.1307 2.4479 10.8545 8.8422 7.749 7.2764 12.6666 10.6633 5.2586 9.7797 10.905 7.8723 5.6169 6.0032 7.8184 3.9189 4.2945 4.4961)

//----------------------------------------------------------------------------------------------------------------------//
New LoadShape.2005_loadcurve interval=1 npts=24 useactual=Yes
~ mult=(8.333 5.465 5.725 6.387 5.366 5.39 5.921 5.787 9.761 11.192 9.18 11.631 9.978 8.742 9.933 5.554 4.683 4.001 4.246 5.602 5.167 8.05 7.328 5.098 )
~ Qmult=(3.5498 2.6468 2.4388 2.3182 2.1208 2.6105 2.149 1.1751 3.5428 3.6786 3.9107 2.3618 4.2506 3.4551 3.6052 1.392 1.6997 1.9378 1.5411 1.8413 2.2011 3.6677 2.6597 1.6756)

//----------------------------------------------------------------------------------------------------------------------//
New LoadShape.2008_loadcurve interval=1 npts=24 useactual=Yes
~ mult=(1.439 1.611 1.607 1.356 1.501 1.356 1.676 1.508 1.506 1.641 1.649 1.314 1.728 1.423 1.534 1.499 1.556 1.687 1.73 1.578 2.044 2.119 2.024 1.934 )
~ Qmult=(0.5223 0.5847 0.7783 0.3955 0.3762 0.3955 0.4888 0.5473 0.3058 0.5394 0.481 0.6364 0.6272 0.5624 0.6989 0.3757 0.5114 0.2404 0.2465 0.4602 0.8078 0.9654 0.411 0.8812)

//----------------------------------------------------------------------------------------------------------------------//
New LoadShape.2009_loadcurve interval=1 npts=24 useactual=Yes
~ mult=(0.63 0.552 0.484 1.485 0.818 0.554 0.553 0.52 0.657 1.178 0.618 2.174 1.46 0.746 0.479 0.839 0.614 0.772 0.911 3.388 0.917 0.765 0.513 0.57 )
~ Qmult=(0.2071 0.2352 0.1412 0.6326 0.3233 0.1616 0.252 0.2055 0.1916 0.4656 0.1549 0.8592 0.577 0.2948 0.1893 0.2447 0.2018 0.2802 0.4151 1.5436 0.3624 0.3023 0.1042 0.1429)

//----------------------------------------------------------------------------------------------------------------------//
New LoadShape.2010_loadcurve interval=1 npts=24 useactual=Yes
~ mult=(1.354 1.127 1.017 1.201 1.181 0.845 1.167 1.216 0.871 0.821 1.264 1.118 0.9 0.673 3.749 2.181 0.637 0.96 1.254 1.373 1.577 1.685 1.9 1.775 )
~ Qmult=(0.3393 0.3704 0.3343 0.4359 0.5381 0.385 0.3404 0.4413 0.3161 0.117 0.6122 0.5094 0.2958 0.1687 1.8157 0.862 0.2714 0.1368 0.4551 0.6256 0.6233 0.7677 0.6896 0.4449)

//----------------------------------------------------------------------------------------------------------------------//
New LoadShape.2011_loadcurve interval=1 npts=24 useactual=Yes
~ mult=(4.674 4.528 4.302 4.835 4.275 4.319 4.623 4.542 6.278 10.45 14.13 13.86 10.887 10.576 10.307 11.101 10.613 12.592 5.619 4.044 5.03 4.616 4.876 4.53 )
~ Qmult=(1.1714 0.6452 1.96 0.689 2.0705 1.4196 1.5195 0.9223 2.6744 2.619 3.5413 2.8144 2.7285 1.507 1.4687 4.729 2.1551 2.5569 1.6389 1.8425 1.2606 1.5172 2.0772 1.4889)

//----------------------------------------------------------------------------------------------------------------------//
New LoadShape.2014_loadcurve interval=1 npts=24 useactual=Yes
~ mult=(1.936 2.217 1.818 1.738 2.212 1.942 4.907 4.16 2.37 1.694 1.849 1.433 1.484 1.867 1.508 1.528 2.569 6.811 6.711 8.329 8.744 8.352 3.207 7.017 )
~ Qmult=(0.8247 0.7287 0.7745 0.7404 0.8028 0.4867 1.2298 1.7722 1.1478 0.6148 0.8955 0.5664 0.5865 0.5445 0.6871 0.74 0.3661 1.707 2.8589 2.7376 4.2349 1.1901 1.3662 2.5468)

//----------------------------------------------------------------------------------------------------------------------//
New LoadShape.2015_loadcurve interval=1 npts=24 useactual=Yes
~ mult=(1.42 1.597 1.114 1.349 1.274 1.302 1.214 1.32 1.24 1.222 1.295 1.173 1.725 0.835 0.929 0.845 0.849 0.958 0.889 1.064 1.432 1.433 1.041 1.048 )
~ Qmult=(0.647 0.4002 0.5076 0.5747 0.3193 0.4279 0.399 0.6393 0.4501 0.5568 0.3246 0.2382 0.7348 0.33 0.1324 0.3067 0.3081 0.464 0.2228 0.2667 0.61 0.6529 0.4435 0.3057)

//----------------------------------------------------------------------------------------------------------------------//
New LoadShape.2016_loadcurve interval=1 npts=24 useactual=Yes
~ mult=(1.544 1.521 1.507 1.73 1.699 2.115 1.772 2.807 2.249 1.825 1.735 1.98 2.996 2.631 2.411 1.701 3.0 3.075 5.099 2.56 4.033 3.453 1.942 1.491 )
~ Qmult=(0.7035 0.4999 0.642 0.5046 0.2421 0.901 0.8582 1.0188 1.0892 0.7213 0.6857 0.6508 0.4269 0.5342 1.0985 0.6174 0.6092 1.4893 1.676 1.0118 1.3256 0.7012 0.2767 0.6793)

//----------------------------------------------------------------------------------------------------------------------//
New LoadShape.2017_loadcurve interval=1 npts=24 useactual=Yes
~ mult=(3.304 2.606 2.364 2.451 2.71 2.523 3.019 3.565 3.251 2.759 2.163 3.603 2.795 2.812 3.616 3.397 2.956 3.45 3.708 3.467 3.467 3.979 3.259 6.397 )
~ Qmult=(1.086 0.9459 0.5925 1.0441 0.8907 1.0748 1.1932 0.508 1.4812 0.6915 0.6309 1.6416 1.1047 1.1114 0.9063 1.4471 0.7408 0.7006 1.0815 1.4769 1.0112 1.4442 1.1829 1.299)

//----------------------------------------------------------------------------------------------------------------------//
New LoadShape.2018_loadcurve interval=1 npts=24 useactual=Yes
~ mult=(2.5 2.455 2.295 2.729 2.521 2.853 5.466 3.8 4.309 7.146 4.44 3.153 3.229 3.486 2.977 2.641 3.042 5.261 3.003 2.648 3.347 3.169 3.972 3.221 )
~ Qmult=(0.3562 1.189 0.907 1.0786 1.0739 1.0355 0.7789 1.8404 0.875 2.3488 1.8914 0.7902 0.6557 1.3778 1.1766 1.2033 0.4335 1.3185 0.6098 1.0466 1.621 0.9243 1.5698 0.9395)

//----------------------------------------------------------------------------------------------------------------------//
New LoadShape.2020_loadcurve interval=1 npts=24 useactual=Yes
~ mult=(3.669 3.54 3.401 3.764 3.333 3.158 3.183 2.956 2.979 4.61 3.983 5.584 3.016 6.442 6.122 6.203 3.984 5.384 4.421 6.782 6.696 5.579 4.896 4.7 )
~ Qmult=(1.4501 1.0325 1.2344 0.9433 1.3173 1.2481 1.4502 1.2593 0.8689 2.2327 1.8147 1.3995 0.7559 2.546 2.222 1.8092 0.9985 2.1279 1.2895 2.6804 2.4303 2.205 2.0857 1.1779)

//----------------------------------------------------------------------------------------------------------------------//
New LoadShape.2022_loadcurve interval=1 npts=24 useactual=Yes
~ mult=(1.082 1.714 1.054 0.981 0.949 1.054 1.117 1.705 1.677 2.262 2.362 1.471 0.848 1.421 0.977 0.779 0.903 1.144 2.082 2.272 5.398 2.496 2.951 2.642 )
~ Qmult=(0.4276 0.2442 0.2642 0.1992 0.4596 0.2642 0.3258 0.7263 0.3405 0.821 1.0762 0.6702 0.2787 0.4671 0.1984 0.1952 0.3847 0.4521 0.7557 0.8246 1.5744 0.8204 0.5992 0.7706)

//----------------------------------------------------------------------------------------------------------------------//
New LoadShape.2023_loadcurve interval=1 npts=24 useactual=Yes
~ mult=(0.708 0.692 0.711 0.702 0.688 0.684 0.684 0.684 0.357 0.362 0.322 0.884 1.564 0.921 1.421 2.253 1.181 0.644 0.652 0.767 0.904 0.867 0.857 0.905 )
~ Qmult=(0.1774 0.2018 0.3029 0.2991 0.098 0.1714 0.2248 0.1389 0.1411 0.1056 0.0459 0.3208 0.2229 0.3923 0.2885 0.321 0.296 0.1308 0.2778 0.3495 0.3573 0.2529 0.25 0.3577)

//----------------------------------------------------------------------------------------------------------------------//
New LoadShape.2024_loadcurve interval=1 npts=24 useactual=Yes
~ mult=(2.105 1.832 2.076 4.565 3.562 2.036 2.356 3.343 2.037 2.166 3.357 1.867 1.723 1.486 3.247 1.869 2.168 2.114 2.365 7.118 6.188 4.607 2.548 4.6 )
~ Qmult=(0.764 0.6649 0.6055 1.1441 1.1708 0.6692 0.4784 0.975 0.6695 0.8561 1.1034 0.5445 0.2455 0.677 0.8138 0.7387 0.6323 0.9632 0.9347 1.0143 2.4457 1.9626 1.1609 2.2279)

//----------------------------------------------------------------------------------------------------------------------//
New LoadShape.2025_loadcurve interval=1 npts=24 useactual=Yes
~ mult=(4.005 1.927 1.726 1.309 1.299 1.392 1.397 1.934 2.35 2.095 1.832 1.49 1.468 3.607 3.239 1.598 1.801 5.25 1.612 2.429 8.934 4.518 5.053 3.44 )
~ Qmult=(1.8247 0.8209 0.4326 0.5964 0.5918 0.3489 0.1991 0.4847 1.0011 0.8925 0.261 0.4897 0.2092 0.7324 1.3798 0.7281 0.8723 2.392 0.4702 0.3461 3.5309 1.9247 2.1526 1.2486)

//----------------------------------------------------------------------------------------------------------------------//
New LoadShape.2028_loadcurve interval=1 npts=24 useactual=Yes
~ mult=(1.0 0.843 0.794 0.906 0.993 0.943 0.965 2.32 3.878 3.17 1.414 0.576 0.412 1.692 3.895 2.859 1.797 2.22 3.134 2.576 0.868 0.989 1.044 0.964 )
~ Qmult=(0.363 0.4083 0.1612 0.386 0.3604 0.1344 0.4674 0.6767 0.7875 1.0419 0.5132 0.2091 0.0837 0.5561 0.9762 1.3026 0.3649 0.4508 1.0301 1.0974 0.2175 0.4506 0.3431 0.1374)

//----------------------------------------------------------------------------------------------------------------------//
New LoadShape.2029_loadcurve interval=1 npts=24 useactual=Yes
~ mult=(8.872 7.643 7.927 7.659 7.801 8.775 9.54 12.067 18.775 21.133 21.352 21.12 20.417 19.91 19.777 20.194 20.555 20.765 17.604 7.279 8.363 8.216 8.308 8.306 )
~ Qmult=(3.5064 3.4823 2.6055 2.7798 1.1116 2.8842 3.7704 3.0243 7.4204 10.2352 7.7497 8.9971 2.9093 5.8071 6.5004 9.7804 8.7564 4.2165 8.0206 1.0372 3.8103 1.6683 2.7307 3.2827)

//----------------------------------------------------------------------------------------------------------------------//
New LoadShape.2030_loadcurve interval=1 npts=24 useactual=Yes
~ mult=(4.523 3.945 4.213 4.081 4.437 4.03 6.351 5.546 11.126 13.929 14.058 14.587 15.204 14.485 16.449 16.095 15.307 14.609 8.871 4.509 3.42 3.615 3.756 3.676 )
~ Qmult=(1.4866 1.9107 0.8555 1.7385 1.8902 1.5928 2.8936 1.1262 4.0382 6.7461 6.8086 5.2944 6.9271 4.2248 7.4944 7.3331 2.1811 6.6561 3.506 1.9208 0.8571 1.54 1.7113 1.566)

//----------------------------------------------------------------------------------------------------------------------//
New LoadShape.2031_loadcurve interval=1 npts=24 useactual=Yes
~ mult=(3.373 3.354 2.764 2.906 2.539 2.954 3.319 6.639 8.616 6.48 7.376 7.081 7.465 6.52 7.099 7.894 7.112 6.344 2.726 2.619 3.363 2.454 2.93 2.934 )
~ Qmult=(0.9838 0.8406 1.1775 1.0547 0.8345 1.2584 1.3118 3.2154 4.1729 2.9524 3.1422 1.009 2.7094 2.5769 3.4382 1.6029 2.8108 3.0725 0.896 1.0351 0.4792 0.615 0.4175 1.3368)

//----------------------------------------------------------------------------------------------------------------------//
New LoadShape.2032_loadcurve interval=1 npts=24 useactual=Yes
~ mult=(1.116 0.862 1.016 0.85 0.864 0.896 1.602 1.059 0.833 0.599 0.628 0.644 0.494 0.696 0.714 0.565 1.19 1.063 1.543 2.198 3.308 3.575 1.436 0.99 )
~ Qmult=(0.4411 0.216 0.4921 0.4117 0.3937 0.434 0.4015 0.215 0.3795 0.2174 0.1574 0.2545 0.1624 0.2965 0.145 0.2574 0.4703 0.3494 0.56 0.4463 1.2006 1.2976 0.5212 0.3593)

//----------------------------------------------------------------------------------------------------------------------//
New LoadShape.2034_loadcurve interval=1 npts=24 useactual=Yes
~ mult=(2.085 2.007 2.356 1.599 1.579 1.812 1.763 1.769 6.536 9.683 11.061 11.062 12.124 11.152 11.617 12.473 12.164 11.426 6.012 2.86 2.326 1.995 1.912 1.691 )
~ Qmult=(0.6853 0.6597 0.3357 0.6812 0.6241 0.8776 0.4418 0.2521 2.1483 3.827 5.0395 1.5762 5.8719 3.6655 5.6264 5.3135 3.5478 3.3326 0.8567 1.038 0.8442 0.9089 0.926 0.819)

//----------------------------------------------------------------------------------------------------------------------//
New LoadShape.2035_loadcurve interval=1 npts=24 useactual=Yes
~ mult=(2.93 2.553 3.278 2.969 2.455 2.952 2.801 3.025 11.626 12.566 19.263 21.232 20.379 16.959 15.859 11.531 11.467 11.083 11.008 12.276 10.601 1.329 1.564 1.104 )
~ Qmult=(0.8546 0.3638 1.1898 0.4231 1.189 0.9703 0.9206 1.1956 5.6307 6.086 8.7765 6.1927 8.6814 5.5742 3.9746 2.8899 3.769 2.2505 3.6182 5.9455 3.4844 0.3876 0.392 0.1573)

//----------------------------------------------------------------------------------------------------------------------//
New LoadShape.2037_loadcurve interval=1 npts=24 useactual=Yes
~ mult=(2.531 2.408 2.443 2.567 2.397 2.65 2.558 2.533 2.208 2.36 2.346 2.845 2.245 1.921 3.886 3.957 3.438 3.176 3.451 2.543 2.451 2.824 6.026 3.663 )
~ Qmult=(0.3606 0.7023 0.803 0.6434 1.0211 0.5381 1.2389 1.2268 0.4484 1.143 1.0689 0.4054 0.5627 0.4814 1.5358 1.3006 1.13 1.2552 1.4701 0.923 1.1871 0.4024 1.5103 1.5604)

//----------------------------------------------------------------------------------------------------------------------//
New LoadShape.2040_loadcurve interval=1 npts=24 useactual=Yes
~ mult=(47.32 46.88 48.28 47.72 58.8 63.08 67.72 73.6 74.12 78.44 74.04 77.92 76.64 75.4 75.56 71.4 73.56 82.96 82.72 76.52 70.16 74.44 63.64 60.64 )
~ Qmult=(22.9181 19.9708 20.5672 23.1119 23.2392 20.7334 28.8486 31.3535 31.575 33.4153 26.8729 28.2812 25.1903 27.3665 29.8632 25.9147 14.937 20.7917 40.0631 25.1509 9.9973 27.0181 23.0982 8.6407)

//----------------------------------------------------------------------------------------------------------------------//
New LoadShape.2041_loadcurve interval=1 npts=24 useactual=Yes
~ mult=(1.598 1.643 1.697 1.624 1.545 1.624 1.611 2.988 7.27 6.59 6.3 7.108 6.01 6.228 8.048 8.31 9.906 6.992 2.066 1.636 1.632 1.598 1.897 1.875 )
~ Qmult=(0.7739 0.4792 0.6159 0.7399 0.5608 0.6918 0.6367 0.9821 1.822 0.939 1.5789 3.4426 2.5602 1.5609 3.1808 3.54 2.0115 2.2982 0.6026 0.7454 0.645 0.7281 0.9188 0.6163)

//----------------------------------------------------------------------------------------------------------------------//
New LoadShape.2042_loadcurve interval=1 npts=24 useactual=Yes
~ mult=(3.373 3.438 3.477 3.492 3.925 2.962 3.934 3.754 2.849 4.004 4.173 5.169 3.893 3.958 3.734 3.801 3.361 3.369 2.806 3.216 3.3 3.051 3.761 3.843 )
~ Qmult=(1.4369 1.4646 0.4954 1.1478 1.7883 0.9736 1.7924 0.7623 1.126 0.5705 1.2171 1.5076 1.5386 1.6861 1.7013 1.3796 1.5313 1.1073 1.2785 1.1673 1.0847 1.0028 1.3651 0.5476)

//----------------------------------------------------------------------------------------------------------------------//
New LoadShape.2043_loadcurve interval=1 npts=24 useactual=Yes
~ mult=(5.217 5.287 5.024 4.835 5.119 5.268 5.198 7.501 11.52 20.129 27.18 26.5 25.719 13.967 23.589 23.01 18.427 18.131 7.344 6.226 7.736 6.106 5.419 5.392 )
~ Qmult=(1.5216 1.325 1.6513 0.9818 1.6825 0.7506 0.7407 1.8799 4.553 6.6161 7.9275 12.8345 5.2225 1.9902 3.3613 4.6724 3.7418 5.2882 3.1285 2.6523 1.9388 0.8701 1.3581 0.7683)

//----------------------------------------------------------------------------------------------------------------------//
New LoadShape.2045_loadcurve interval=1 npts=24 useactual=Yes
~ mult=(2.167 2.549 2.106 2.215 2.13 2.036 2.054 2.109 2.232 2.84 2.396 2.406 2.679 2.575 2.919 2.342 2.458 5.336 3.015 3.062 2.512 6.728 3.31 2.511 )
~ Qmult=(0.9231 0.5176 0.3001 0.728 0.4325 0.9276 0.5991 1.0214 0.4532 0.4047 0.8696 1.025 0.9723 0.3669 1.2435 0.4756 0.8921 1.0835 1.4602 0.4363 0.7327 0.9587 1.2014 0.8253)

//----------------------------------------------------------------------------------------------------------------------//
New LoadShape.2046_loadcurve interval=1 npts=24 useactual=Yes
~ mult=(4.284 4.541 4.477 4.955 3.993 3.589 4.27 6.305 11.328 5.256 3.911 4.971 3.826 5.356 4.481 4.473 3.627 4.163 4.454 5.21 5.447 6.226 5.996 4.114 )
~ Qmult=(1.6931 1.4926 2.1683 1.6286 1.1646 1.0468 1.5498 1.5802 4.8257 0.7489 0.5573 1.6339 1.7432 2.2816 1.4728 1.7678 1.3164 1.7734 2.0293 2.0591 2.4817 2.6523 1.7488 1.7526)

//----------------------------------------------------------------------------------------------------------------------//
New LoadShape.2047_loadcurve interval=1 npts=24 useactual=Yes
~ mult=(4.616 5.041 4.521 3.909 5.353 6.057 5.443 4.472 8.172 13.541 6.541 6.845 5.415 6.252 10.3 8.602 7.759 7.137 7.32 7.97 15.832 8.493 8.197 10.177 )
~ Qmult=(1.3463 2.2967 0.6442 0.7938 2.5926 1.2299 1.1052 1.1208 2.3835 1.9295 2.1499 1.7155 2.3068 2.2692 3.3854 1.7467 1.9446 2.0816 1.043 2.8927 6.7444 4.1133 2.9751 4.3354)

//----------------------------------------------------------------------------------------------------------------------//
New LoadShape.2048_loadcurve interval=1 npts=24 useactual=Yes
~ mult=(3.761 2.974 2.904 2.9 3.58 3.596 4.354 3.911 3.961 6.048 6.336 4.957 2.995 2.87 3.385 3.489 3.73 5.032 6.567 9.773 7.624 5.36 7.241 3.764 )
~ Qmult=(0.7637 0.8674 1.4065 0.7268 1.7339 1.1819 1.9837 1.7819 1.8047 2.1951 2.6991 1.6293 1.2759 1.3076 0.4823 1.4863 1.0879 1.6539 3.1805 3.2122 3.2478 1.3433 2.8618 1.2372)

//----------------------------------------------------------------------------------------------------------------------//
New LoadShape.2049_loadcurve interval=1 npts=24 useactual=Yes
~ mult=(3.111 2.599 2.491 2.937 2.768 2.721 2.713 3.07 3.433 3.663 3.573 6.678 5.316 4.475 2.922 3.297 3.4 3.642 5.667 3.586 4.078 3.856 4.035 3.564 )
~ Qmult=(1.1291 0.8542 1.2064 1.4225 0.6937 0.7936 1.1557 1.3987 1.5641 0.5219 1.7305 0.9516 1.7473 1.1215 0.7323 1.4045 1.4484 1.1971 2.4141 1.4173 1.7372 0.5495 1.8384 1.2936)

//----------------------------------------------------------------------------------------------------------------------//
New LoadShape.2050_loadcurve interval=1 npts=24 useactual=Yes
~ mult=(2.802 2.572 1.966 1.799 2.75 1.914 2.548 6.977 4.539 1.823 2.185 1.703 1.588 2.241 2.065 1.348 1.535 1.782 4.629 2.899 4.53 4.759 6.95 2.582 )
~ Qmult=(0.7022 0.6446 0.7136 0.8196 1.1715 0.4797 1.0854 1.7486 1.6474 0.8829 0.9955 0.6181 0.522 0.8134 0.4193 0.3378 0.3117 0.4466 1.6801 1.3208 1.3213 2.3049 3.366 0.8487)

//----------------------------------------------------------------------------------------------------------------------//
New LoadShape.2051_loadcurve interval=1 npts=24 useactual=Yes
~ mult=(4.035 3.709 3.752 3.587 3.219 3.259 4.039 9.18 9.909 3.744 2.804 4.216 3.19 4.672 3.537 3.778 2.882 3.84 7.246 8.488 9.964 11.778 6.427 4.372 )
~ Qmult=(1.1769 1.6899 0.7619 1.0462 0.4587 0.4644 1.5963 3.3319 3.9163 1.2306 1.1945 1.5302 0.7995 1.1709 1.2838 0.7672 1.046 0.7797 3.5094 3.3547 2.0233 5.7043 1.6108 1.437)

//----------------------------------------------------------------------------------------------------------------------//
New LoadShape.2052_loadcurve interval=1 npts=24 useactual=Yes
~ mult=(66.449 65.62 65.607 66.233 65.937 64.714 64.068 72.51 108.03 118.454 117.299 122.143 131.643 129.132 124.761 110.03 103.565 88.94 73.277 76.894 90.19 64.789 64.778 64.387 )
~ Qmult=(26.2623 27.954 19.1354 16.5996 16.5254 31.3424 16.057 23.8329 35.5077 38.9339 29.3979 17.4044 43.269 26.2214 56.8428 36.1651 47.1856 12.6733 21.3725 19.2715 18.3139 16.2377 23.5113 23.3694)

//----------------------------------------------------------------------------------------------------------------------//
New LoadShape.2053_loadcurve interval=1 npts=24 useactual=Yes
~ mult=(5.08 5.36 5.96 6.84 7.24 7.12 8.56 45.0 74.04 84.32 75.64 81.92 69.44 82.88 83.92 72.92 72.08 22.84 5.48 5.56 6.24 5.64 5.56 5.52 )
~ Qmult=(1.2732 2.1184 2.8866 1.3889 2.1117 2.0767 2.4967 16.3328 21.595 30.6041 34.4626 39.6757 17.4033 35.3067 24.4767 23.9676 18.065 3.2545 2.4968 0.7923 1.5639 2.047 1.3935 2.515)

//----------------------------------------------------------------------------------------------------------------------//
New LoadShape.2054_loadcurve interval=1 npts=24 useactual=Yes
~ mult=(3.583 3.872 3.844 3.741 3.786 5.306 7.136 11.673 13.477 8.893 9.45 6.859 6.969 5.506 5.11 5.795 5.861 5.714 6.438 9.06 9.19 9.585 7.725 4.691 )
~ Qmult=(1.5264 1.6495 0.7806 0.7596 1.8336 1.3298 1.449 4.9727 5.3265 2.5938 1.3466 3.322 1.7466 1.118 1.2807 2.4687 2.1273 2.7674 1.6135 2.2707 3.3355 3.7882 2.8038 1.5419)

//----------------------------------------------------------------------------------------------------------------------//
New LoadShape.2055_loadcurve interval=1 npts=24 useactual=Yes
~ mult=(5.025 2.895 2.956 2.449 2.4 2.751 3.057 2.124 2.931 2.909 3.313 2.812 2.582 4.383 2.61 2.464 3.803 5.703 6.148 4.243 5.203 4.76 5.895 2.97 )
~ Qmult=(1.2594 0.7256 1.0729 0.4973 1.0935 0.6895 1.1095 0.5323 1.0638 0.7291 1.6046 1.2812 1.1764 1.5908 1.1119 1.1934 0.7722 2.7621 1.7932 1.0634 1.0565 1.7276 0.84 0.6031)
