// This file is to define load shape curves.


//***************************************************************************************//
//                                             Feeder A
//***************************************************************************************//
//----------------------------------------------------------------------------------------------------------------------//
New LoadShape.1003_loadcurve interval=1 npts=24 useactual=Yes
~ mult=(15.067 14.518 15.115 14.933 15.366 15.382 14.371 19.526 29.962 45.983 43.674 41.528 42.169 41.099 39.551 37.746 39.25 31.894 16.546 17.45 16.051 16.421 15.53 16.257 )
~ Qmult=(5.4686 3.6386 4.4085 7.2324 4.4817 4.4864 2.0478 6.4179 6.084 19.5887 17.2611 12.1123 13.8603 5.8563 15.6316 14.9182 17.8828 13.5868 8.0136 4.3734 6.3438 4.1155 3.1535 6.9255)

//----------------------------------------------------------------------------------------------------------------------//
New LoadShape.1004_loadcurve interval=1 npts=24 useactual=Yes
~ mult=(6.707 7.293 7.489 7.586 8.178 8.101 7.242 11.18 18.83 21.873 20.73 17.26 17.575 16.156 15.847 14.67 14.984 13.527 15.384 15.745 9.636 6.637 5.949 6.198 )
~ Qmult=(1.6809 1.4809 1.5207 2.7534 1.6606 3.2017 2.8622 1.5931 5.4921 5.4819 10.04 6.8216 5.126 5.8638 6.7508 5.3245 4.3703 5.7625 3.8556 5.1751 2.415 3.2144 1.7351 2.0372)

//----------------------------------------------------------------------------------------------------------------------//
New LoadShape.1005_loadcurve interval=1 npts=24 useactual=Yes
~ mult=(3.588 3.779 3.84 3.488 3.795 4.642 3.917 22.345 23.343 23.41 25.241 26.144 21.934 23.572 24.567 21.742 24.209 5.728 3.414 3.268 4.077 3.821 3.943 3.419 )
~ Qmult=(1.1793 1.2421 1.8598 1.1465 1.1069 2.2482 1.5481 8.1102 10.6354 11.338 5.1254 8.5931 4.4539 11.4164 3.5006 3.0981 6.0673 2.4401 1.1221 0.819 0.5809 1.6277 1.5584 1.2409)

//----------------------------------------------------------------------------------------------------------------------//
New Loadshape.1006_1_loadcurve interval=1 npts=24 useactual=Yes
~ mult=(4.48 3.58 2.7 2.48 2.46 2.52 2.38 4.84 8.92 9.22 9.54 10.38 9.16 8.92 10.04 8.58 8.22 5.04 2.28 2.1 2.48 2.5 2.58 2.18 )
~ Qmult=(0.6384 1.6311 1.1502 0.7233 1.048 1.2205 0.6942 2.3441 4.0641 1.8722 2.7825 3.0275 3.0107 3.2375 3.9681 3.391 3.7451 2.441 0.7494 0.2992 1.2011 0.7292 0.848 0.7912)

//----------------------------------------------------------------------------------------------------------------------//
New Loadshape.1006_2_loadcurve interval=1 npts=24 useactual=Yes
~ mult=(4.48 3.58 2.7 2.48 2.46 2.52 2.38 4.84 8.92 9.22 9.54 10.38 9.16 8.92 10.04 8.58 8.22 5.04 2.28 2.1 2.48 2.5 2.58 2.18 )
~ Qmult=(0.6384 1.6311 1.1502 0.7233 1.048 1.2205 0.6942 2.3441 4.0641 1.8722 2.7825 3.0275 3.0107 3.2375 3.9681 3.391 3.7451 2.441 0.7494 0.2992 1.2011 0.7292 0.848 0.7912)

//----------------------------------------------------------------------------------------------------------------------//
New Loadshape.1007_1_loadcurve interval=1 npts=24 useactual=Yes
~ mult=(1.7495 1.6995 1.758 1.6945 1.884 1.784 2.072 1.6935 2.351 2.78 1.817 1.514 1.4765 1.258 1.187 0.8455 1.1255 1.6585 1.666 1.9325 2.1735 1.7185 1.6265 1.3835 )
~ Qmult=(0.5103 0.4957 0.5128 0.8207 0.9125 0.3623 0.681 0.7716 1.1386 1.1843 0.7181 0.4976 0.4306 0.5732 0.1691 0.3602 0.4448 0.4837 0.6584 0.7014 0.859 0.7321 0.3303 0.5894)

//----------------------------------------------------------------------------------------------------------------------//
New Loadshape.1007_2_loadcurve interval=1 npts=24 useactual=Yes
~ mult=(1.7495 1.6995 1.758 1.6945 1.884 1.784 2.072 1.6935 2.351 2.78 1.817 1.514 1.4765 1.258 1.187 0.8455 1.1255 1.6585 1.666 1.9325 2.1735 1.7185 1.6265 1.3835 )
~ Qmult=(0.5103 0.4957 0.5128 0.8207 0.9125 0.3623 0.681 0.7716 1.1386 1.1843 0.7181 0.4976 0.4306 0.5732 0.1691 0.3602 0.4448 0.4837 0.6584 0.7014 0.859 0.7321 0.3303 0.5894)

//----------------------------------------------------------------------------------------------------------------------//
New LoadShape.1008_loadcurve interval=1 npts=24 useactual=Yes
~ mult=(6.092 6.21 6.231 6.496 6.24 6.918 8.04 9.087 16.456 18.923 19.889 14.995 15.965 18.266 15.632 12.806 9.746 6.909 7.155 8.908 10.109 9.794 10.528 10.877 )
~ Qmult=(2.2111 1.5564 3.0178 2.7673 2.051 2.0177 1.6326 4.401 7.0102 2.6964 9.0617 4.9286 5.7945 6.0037 3.1742 5.4553 2.8426 2.5076 2.3517 2.9279 4.896 1.3956 4.4849 5.268)

//----------------------------------------------------------------------------------------------------------------------//
New LoadShape.1009_loadcurve interval=1 npts=24 useactual=Yes
~ mult=(9.317 9.218 8.391 8.767 7.639 8.078 7.875 7.992 8.882 9.176 8.443 7.914 7.923 6.926 8.31 7.449 7.86 7.737 7.057 8.072 7.717 9.696 9.293 9.017 )
~ Qmult=(3.3816 4.1998 1.7039 3.4649 3.0191 3.4412 1.9737 2.9007 3.7837 3.3304 1.2031 2.8724 3.8373 2.7373 3.2843 1.5126 1.596 1.5711 1.0056 1.1502 1.9341 4.696 2.329 1.2849)

//----------------------------------------------------------------------------------------------------------------------//
New LoadShape.1010_loadcurve interval=1 npts=24 useactual=Yes
~ mult=(7.156 7.0 6.885 7.604 7.515 7.767 11.278 8.014 6.218 5.644 4.538 7.018 4.077 4.926 2.321 2.096 1.913 4.031 7.143 7.651 6.851 10.849 8.614 5.684 )
~ Qmult=(2.0872 1.7544 2.0081 3.6828 2.1919 3.5387 4.8044 2.9087 1.8136 1.4145 0.9215 1.7589 1.0218 1.9469 0.3307 0.8929 0.4794 0.5744 2.5926 3.0239 1.3912 2.203 1.7491 2.063)

//----------------------------------------------------------------------------------------------------------------------//
New LoadShape.1011_loadcurve interval=1 npts=24 useactual=Yes
~ mult=(3.047 4.084 3.009 3.029 4.425 3.164 3.009 4.747 6.687 11.082 9.157 5.461 6.46 6.067 6.651 3.389 4.529 8.374 7.356 7.919 5.437 4.623 3.756 4.058 )
~ Qmult=(1.4757 1.978 1.0921 0.4316 2.1431 1.2505 0.7541 0.6764 2.6429 5.3673 2.6708 2.6449 2.3447 1.7695 2.6286 1.1139 1.6438 3.8153 1.4937 3.1298 1.5858 0.9387 1.6 1.3338)

//----------------------------------------------------------------------------------------------------------------------//
New LoadShape.1012_loadcurve interval=1 npts=24 useactual=Yes
~ mult=(2.162 1.38 0.952 1.933 1.219 1.191 1.166 3.635 3.35 3.985 4.871 3.27 3.038 5.098 4.717 7.788 5.352 5.08 9.384 7.997 5.802 5.784 4.542 2.714 )
~ Qmult=(0.6306 0.3459 0.2777 0.9362 0.1737 0.5074 0.1661 1.7605 1.4271 1.1623 1.7679 1.1869 1.4714 2.4691 0.6721 1.9519 2.5921 2.1641 3.4059 1.6239 1.4541 1.687 1.1383 1.1562)

//----------------------------------------------------------------------------------------------------------------------//
New LoadShape.1013_loadcurve interval=1 npts=24 useactual=Yes
~ mult=(2.07 2.174 2.172 2.346 2.256 2.229 2.255 2.817 3.66 3.267 3.496 3.269 2.985 3.97 3.168 3.22 3.356 3.081 0.792 1.003 1.167 1.289 1.86 1.518 )
~ Qmult=(0.8181 0.9261 0.7883 1.0689 0.5654 1.0796 0.8185 1.0224 1.4465 1.0738 1.3817 0.9535 0.7481 0.995 0.794 1.2726 0.8411 1.1183 0.1985 0.2514 0.2925 0.1837 0.3777 0.551)

//----------------------------------------------------------------------------------------------------------------------//
New LoadShape.1014_loadcurve interval=1 npts=24 useactual=Yes
~ mult=(0.582 0.567 0.352 0.362 0.362 0.379 0.513 0.601 0.566 0.445 0.467 1.035 0.622 1.311 0.944 2.017 0.591 0.549 0.518 0.618 0.925 0.691 0.59 0.495 )
~ Qmult=(0.0829 0.2415 0.0882 0.1056 0.1542 0.1727 0.1496 0.2911 0.2054 0.0634 0.1362 0.2102 0.2044 0.5181 0.3103 0.7972 0.2693 0.1804 0.2207 0.1802 0.3357 0.1732 0.1198 0.2255)

//----------------------------------------------------------------------------------------------------------------------//
New LoadShape.1015_loadcurve interval=1 npts=24 useactual=Yes
~ mult=(0.49 0.528 0.509 0.557 0.57 0.488 0.848 0.892 0.653 0.548 0.416 0.429 0.472 0.487 0.358 0.691 0.938 4.065 2.882 2.514 1.098 0.735 0.653 0.626 )
~ Qmult=(0.1228 0.2557 0.1276 0.0794 0.2597 0.0991 0.4107 0.432 0.2581 0.2166 0.1367 0.0871 0.1183 0.0694 0.1631 0.1732 0.3404 1.0188 0.9473 0.9936 0.5003 0.1047 0.2975 0.2272)

//----------------------------------------------------------------------------------------------------------------------//
New LoadShape.1016_loadcurve interval=1 npts=24 useactual=Yes
~ mult=(2.162 1.38 0.952 1.933 1.219 1.191 1.166 3.635 3.35 3.985 4.871 3.27 3.038 5.098 4.717 7.788 5.352 5.08 9.384 7.997 5.802 5.784 4.542 2.714 )
~ Qmult=(0.6306 0.4536 0.4611 0.764 0.4424 0.1697 0.3832 0.911 1.5263 1.6976 2.2193 1.2924 1.2007 1.2777 0.6721 3.7719 2.2799 1.0315 1.9055 2.9025 1.907 0.8242 2.0694 1.2365)

//----------------------------------------------------------------------------------------------------------------------//
New LoadShape.1017_loadcurve interval=1 npts=24 useactual=Yes
~ mult=(3.073 2.395 2.425 2.349 4.231 2.983 3.616 4.485 7.013 2.916 2.234 3.019 4.194 7.743 3.613 4.132 4.429 2.045 6.693 7.186 4.333 9.045 4.826 2.504 )
~ Qmult=(0.8963 1.16 1.033 0.9284 2.0492 1.3591 0.5153 0.9107 1.4241 0.5921 0.5599 1.2861 1.0511 3.7501 1.4279 1.2052 0.6311 0.4153 1.6774 2.6082 1.9742 1.8367 2.1988 1.2127)


//***************************************************************************************//
//                                             Feeder B
//***************************************************************************************//
//----------------------------------------------------------------------------------------------------------------------//
New LoadShape.2002_loadcurve interval=1 npts=24 useactual=Yes
~ mult=(46.04 46.54 46.74 47.9 47.86 46.98 54.04 104.96 149.1 142.54 145.22 149.34 129.84 142.32 143.06 119.94 94.62 61.92 63.2 59.48 62.94 54.06 37.32 35.7 )
~ Qmult=(13.4283 16.8918 22.6372 20.4053 23.1797 22.7535 7.7003 47.8212 67.932 69.0353 29.4882 72.3287 18.5012 68.9287 20.3849 54.6463 19.2134 22.474 24.9782 17.3483 20.6874 15.7675 5.3178 10.4125)

//----------------------------------------------------------------------------------------------------------------------//
New LoadShape.2003_loadcurve interval=1 npts=24 useactual=Yes
~ mult=(12.308 12.393 12.375 12.811 12.419 13.821 18.177 22.451 21.82 20.765 22.755 27.77 24.198 24.45 21.374 22.791 24.611 14.195 12.313 10.047 11.561 10.721 10.311 10.608 )
~ Qmult=(1.7538 4.0734 2.5129 4.6498 4.9083 3.4639 5.9745 6.5482 6.3642 8.2069 6.6369 5.6389 3.448 8.0363 4.3402 9.0076 8.9326 6.875 5.61 4.28 4.925 3.127 4.0752 3.094)

//----------------------------------------------------------------------------------------------------------------------//
New LoadShape.2005_loadcurve interval=1 npts=24 useactual=Yes
~ mult=(4.482 4.682 5.302 4.674 4.765 4.94 5.014 7.766 12.661 14.47 14.944 15.493 14.872 14.347 12.438 10.858 9.086 8.668 8.001 9.126 9.87 9.554 7.755 7.959 )
~ Qmult=(1.3073 1.3656 0.7555 2.1295 1.7295 0.7039 1.648 1.577 5.7685 2.9383 5.9062 4.5188 7.2028 2.9133 5.6669 2.7213 3.8706 2.849 2.3336 4.4199 1.4064 1.94 1.9436 1.1341)

//----------------------------------------------------------------------------------------------------------------------//
New LoadShape.2008_loadcurve interval=1 npts=24 useactual=Yes
~ mult=(2.267 2.25 2.245 2.585 2.494 2.423 2.24 2.625 2.477 2.917 2.269 1.929 1.67 1.768 1.471 2.828 1.808 1.861 2.308 3.27 2.915 1.989 1.773 1.942 )
~ Qmult=(0.4603 1.0251 0.4559 0.6479 1.2079 0.492 0.8853 0.374 0.979 0.5923 0.6618 0.8789 0.5489 0.8055 0.2096 1.2885 0.8237 0.6117 0.4687 0.4659 1.3281 0.7219 0.7553 0.6383)

//----------------------------------------------------------------------------------------------------------------------//
New LoadShape.2009_loadcurve interval=1 npts=24 useactual=Yes
~ mult=(0.731 1.08 1.113 1.483 0.836 0.71 0.684 0.782 0.792 0.704 0.818 0.519 0.866 0.475 0.744 1.446 1.516 0.614 0.63 0.819 0.916 1.372 0.792 0.679 )
~ Qmult=(0.2132 0.392 0.1586 0.7182 0.3304 0.3025 0.1995 0.196 0.3608 0.1003 0.2386 0.1054 0.2526 0.119 0.1511 0.6588 0.5502 0.2797 0.1579 0.2389 0.1305 0.6251 0.3608 0.3289)

//----------------------------------------------------------------------------------------------------------------------//
New LoadShape.2010_loadcurve interval=1 npts=24 useactual=Yes
~ mult=(2.496 2.364 2.381 2.479 2.412 2.483 2.77 2.593 3.63 3.199 4.373 9.822 8.868 8.3605 7.853 5.997 7.144 3.23 6.35 6.152 4.404 3.407 3.277 3.29 )
~ Qmult=(0.3557 1.0071 0.3393 1.2006 0.7928 1.2026 1.262 0.5265 1.4347 0.6496 2.1179 3.8819 3.2187 1.1913 1.9681 2.7323 1.7905 1.5644 2.5097 2.4314 1.8761 1.6501 1.2952 1.0814)

//----------------------------------------------------------------------------------------------------------------------//
New LoadShape.2011_loadcurve interval=1 npts=24 useactual=Yes
~ mult=(5.308 5.256 5.32 5.193 5.154 5.35 5.074 5.795 11.431 12.133 13.403 13.113 10.9 14.091 13.816 11.869 12.394 5.842 4.928 5.711 5.72 6.221 5.496 5.417 )
~ Qmult=(1.5482 2.3947 2.5766 1.5146 1.2917 1.5604 2.3118 2.1033 4.1489 5.528 5.7097 6.3509 3.1792 2.8613 5.0145 3.4618 4.0737 1.7039 1.9477 1.4313 2.6061 2.8344 1.9948 0.7719)

//----------------------------------------------------------------------------------------------------------------------//
New LoadShape.2014_loadcurve interval=1 npts=24 useactual=Yes
~ mult=(2.065 2.904 2.475 2.077 2.181 4.147 2.391 3.262 2.553 2.292 2.695 2.076 2.091 2.313 1.947 2.867 3.861 5.599 5.428 6.657 8.85 7.027 4.218 2.537 )
~ Qmult=(0.4193 1.2371 0.7219 0.8209 0.9937 1.0393 0.6974 1.1839 0.3638 1.1101 0.8858 0.5203 1.0127 0.4697 0.6399 1.2213 1.269 1.4032 2.3123 0.9486 1.2611 1.0013 1.2303 1.2287)

//----------------------------------------------------------------------------------------------------------------------//
New LoadShape.2015_loadcurve interval=1 npts=24 useactual=Yes
~ mult=(1.348 1.181 1.087 1.157 1.137 1.039 1.119 1.18 1.098 1.0 1.211 2.95 0.963 1.077 1.108 0.911 1.385 1.522 1.474 1.634 1.67 1.8485 1.717 1.757 )
~ Qmult=(0.3932 0.4668 0.5265 0.3803 0.285 0.4426 0.542 0.2957 0.3202 0.426 0.5159 1.1659 0.2414 0.2187 0.4379 0.2994 0.1974 0.2169 0.7139 0.7914 0.4871 0.8953 0.7823 0.2504)

//----------------------------------------------------------------------------------------------------------------------//
New LoadShape.2016_loadcurve interval=1 npts=24 useactual=Yes
~ mult=(2.06 1.702 1.69 1.741 1.834 3.02 3.263 2.577 2.059 2.759 2.863 2.589 2.743 2.509 2.921 3.156 3.509 3.403 4.164 2.899 2.108 2.078 1.956 1.737 )
~ Qmult=(0.6771 0.4964 0.5555 0.4363 0.4596 1.2865 1.0725 0.6459 0.8771 0.5602 0.835 0.9397 0.3909 0.5095 1.1545 1.1455 0.5 0.691 1.8972 1.404 0.8331 0.8852 0.2787 0.6304)

//----------------------------------------------------------------------------------------------------------------------//
New LoadShape.2017_loadcurve interval=1 npts=24 useactual=Yes
~ mult=(3.204 3.838 3.2 3.246 3.179 3.887 4.417 3.763 4.14 3.982 5.519 4.261 4.723 4.266 3.808 4.417 5.147 4.266 4.348 4.444 5.607 4.414 5.84 5.612 )
~ Qmult=(0.9345 1.8588 1.5498 0.4625 0.6455 1.4108 1.2883 1.603 1.7636 1.9286 1.6097 2.0637 1.1837 1.8173 1.6222 0.8969 2.1926 2.0661 1.5781 1.2962 2.5546 1.6021 1.9195 1.6368)

//----------------------------------------------------------------------------------------------------------------------//
New LoadShape.2018_loadcurve interval=1 npts=24 useactual=Yes
~ mult=(2.956 2.849 3.062 3.094 3.345 3.785 3.383 3.663 5.178 6.746 6.096 3.485 3.127 3.105 3.952 3.932 4.465 3.86 4.588 4.239 3.675 3.815 5.667 3.001 )
~ Qmult=(1.0729 0.714 1.3951 1.4097 0.4766 1.2441 1.5413 1.7741 1.7019 2.2173 2.5969 1.5878 1.0278 0.4424 1.8006 0.9855 1.9021 1.7587 1.3382 1.5386 1.5655 1.5078 2.7447 0.7521)

//----------------------------------------------------------------------------------------------------------------------//
New LoadShape.2020_loadcurve interval=1 npts=24 useactual=Yes
~ mult=(4.486 3.944 3.871 4.189 4.209 4.08 5.026 3.957 4.77 4.532 3.268 3.03 2.977 3.607 2.687 2.755 2.426 2.744 2.593 3.055 3.573 4.437 3.762 3.373 )
~ Qmult=(1.773 1.2963 1.5299 1.0499 1.2276 1.4808 1.8242 1.3006 1.1955 0.6458 0.9532 0.4318 1.1766 1.1856 0.3829 1.3343 0.8805 0.391 0.5265 0.891 0.8955 1.112 1.6026 0.4806)

//----------------------------------------------------------------------------------------------------------------------//
New LoadShape.2022_loadcurve interval=1 npts=24 useactual=Yes
~ mult=(1.716 1.597 1.561 2.1 1.628 1.562 3.543 3.93 1.752 1.458 1.719 1.354 1.183 1.161 0.924 1.47 1.062 1.469 2.561 2.453 1.765 2.028 2.015 1.736 )
~ Qmult=(0.564 0.7735 0.2224 0.4264 0.5351 0.6173 1.5093 1.1462 0.2496 0.4253 0.7323 0.3393 0.1686 0.5623 0.421 0.2095 0.4839 0.4285 1.2403 0.7155 0.5148 0.8015 0.7964 0.5706)

//----------------------------------------------------------------------------------------------------------------------//
New LoadShape.2023_loadcurve interval=1 npts=24 useactual=Yes
~ mult=(0.76 0.828 0.756 0.781 0.833 0.72 0.855 0.463 0.478 0.424 0.321 0.338 0.35 0.284 0.328 0.303 0.303 0.411 0.302 0.52 0.693 0.715 0.707 0.684 )
~ Qmult=(0.2758 0.118 0.2485 0.2567 0.243 0.2613 0.281 0.183 0.1198 0.0604 0.0936 0.1227 0.0499 0.121 0.0666 0.11 0.1467 0.0586 0.1376 0.2215 0.1407 0.1792 0.1436 0.1389)

//----------------------------------------------------------------------------------------------------------------------//
New LoadShape.2024_loadcurve interval=1 npts=24 useactual=Yes
~ mult=(4.703 3.299 3.276 3.774 3.477 3.848 3.84 4.171 4.502 2.929 3.035 2.666 2.23 1.965 1.846 3.687 2.187 3.021 4.682 3.248 3.418 2.566 2.162 2.514 )
~ Qmult=(1.707 1.3038 1.5866 1.1007 0.4954 1.3966 1.8598 1.6485 1.7793 0.8543 1.1995 1.2147 0.5589 0.4925 0.8411 0.7487 0.4441 1.3764 2.1332 1.1789 0.9969 0.521 0.8545 0.8263)

//----------------------------------------------------------------------------------------------------------------------//
New LoadShape.2025_loadcurve interval=1 npts=24 useactual=Yes
~ mult=(1.922 2.618 2.154 1.917 1.952 2.041 3.053 2.474 1.89 1.742 1.497 1.993 1.596 1.749 1.982 1.806 1.96 3.51 1.944 2.959 5.661 4.144 4.013 4.263 )
~ Qmult=(0.3903 1.268 0.6282 0.7576 0.8894 0.5115 0.6199 0.3525 0.5513 0.3537 0.6377 0.9653 0.6799 0.5101 0.6515 0.8228 0.9493 1.1537 0.277 1.1695 1.1495 1.0386 0.8149 1.4012)

//----------------------------------------------------------------------------------------------------------------------//
New LoadShape.2028_loadcurve interval=1 npts=24 useactual=Yes
~ mult=(1.026 1.091 1.053 1.004 1.045 1.434 1.375 2.516 4.615 2.503 0.859 0.853 0.835 0.82 1.425 1.825 1.715 1.705 1.027 1.099 1.134 1.075 1.096 1.027 )
~ Qmult=(0.2083 0.2215 0.15 0.4574 0.2619 0.5668 0.4991 1.0718 2.2351 0.6273 0.2153 0.2488 0.3557 0.2055 0.2894 0.26 0.8306 0.6188 0.2995 0.3989 0.4116 0.3135 0.3978 0.4375)

//----------------------------------------------------------------------------------------------------------------------//
New LoadShape.2029_loadcurve interval=1 npts=24 useactual=Yes
~ mult=(10.491 9.999 10.539 10.868 10.681 10.819 13.785 21.166 25.276 24.439 23.942 23.434 23.182 22.386 22.984 24.094 23.345 11.647 5.951 8.202 10.614 10.337 10.171 10.052 )
~ Qmult=(4.7798 2.0304 4.4896 4.2953 2.1689 2.1969 2.7992 8.3653 11.5161 8.8702 10.9083 8.5054 7.6196 9.5364 10.4718 10.9776 9.2265 5.6409 1.2084 3.7369 2.1553 2.099 2.0653 4.2821)

//----------------------------------------------------------------------------------------------------------------------//
New LoadShape.2030_loadcurve interval=1 npts=24 useactual=Yes
~ mult=(5.572 6.018 5.555 6.084 6.215 9.474 9.545 12.94 18.659 18.324 17.682 17.737 17.784 17.44 16.428 17.533 15.866 7.128 3.393 4.168 5.222 5.07 4.995 4.965 )
~ Qmult=(2.5387 0.8575 2.3664 1.5248 1.5576 1.35 1.9382 1.8439 8.5013 5.3445 7.5325 7.0101 8.6132 6.8927 4.7915 8.4916 3.9764 1.0157 0.8504 1.7756 0.7441 2.31 2.4192 1.6319)

//----------------------------------------------------------------------------------------------------------------------//
New LoadShape.2031_loadcurve interval=1 npts=24 useactual=Yes
~ mult=(6.866 6.932 7.19 7.121 7.038 6.634 9.325 12.457 11.639 11.363 13.442 12.098 11.286 12.069 12.559 12.577 10.702 7.399 7.259 4.736 6.148 6.281 5.619 6.335 )
~ Qmult=(2.0026 2.7397 3.2759 1.7847 3.4087 2.8261 4.5163 3.6333 4.9582 4.8406 6.1244 3.5286 5.4661 5.4988 2.5502 5.7303 3.1214 2.9243 2.6347 0.6748 2.2314 3.042 1.8469 1.5877)

//----------------------------------------------------------------------------------------------------------------------//
New LoadShape.2032_loadcurve interval=1 npts=24 useactual=Yes
~ mult=(1.066 1.056 1.076 1.124 1.011 1.689 1.31 1.034 0.612 0.646 0.691 0.691 0.889 1.575 0.864 0.873 1.437 3.592 4.867 2.952 3.342 2.818 2.17 1.11 )
~ Qmult=(0.3504 0.3833 0.4584 0.2282 0.2053 0.2407 0.5581 0.3399 0.2788 0.2123 0.2944 0.0985 0.3514 0.2244 0.4185 0.1244 0.4191 1.5302 2.0733 1.4297 1.213 1.2839 0.9244 0.5057)

//----------------------------------------------------------------------------------------------------------------------//
New LoadShape.2034_loadcurve interval=1 npts=24 useactual=Yes
~ mult=(3.351 3.356 3.364 3.538 3.433 3.741 3.359 9.573 12.489 12.54 13.781 12.783 11.697 11.687 11.923 10.656 11.038 6.526 6.522 9.754 7.626 4.083 4.285 3.578 )
~ Qmult=(0.6804 0.4782 0.4793 1.2841 0.4892 1.8118 1.6268 3.1465 3.13 6.0734 5.8707 4.6396 1.6667 4.619 4.7123 5.1609 3.628 1.3252 2.5777 4.7241 2.7679 0.8291 1.4084 0.5098)

//----------------------------------------------------------------------------------------------------------------------//
New LoadShape.2035_loadcurve interval=1 npts=24 useactual=Yes
~ mult=(5.053 5.52 5.876 5.984 5.608 5.63 5.769 15.883 14.813 17.211 13.878 15.532 15.129 14.509 13.728 12.033 14.027 20.016 22.348 20.959 19.266 9.432 4.297 5.774 )
~ Qmult=(2.1526 2.515 2.3223 2.5492 1.4055 2.2251 2.7941 7.6925 3.0079 5.657 1.9775 6.6166 3.7917 6.6105 4.004 3.9551 6.3909 6.5789 6.5182 9.5492 8.2073 4.018 1.8305 2.4597)

//----------------------------------------------------------------------------------------------------------------------//
New LoadShape.2037_loadcurve interval=1 npts=24 useactual=Yes
~ mult=(3.064 3.067 3.133 3.211 3.352 3.528 3.246 3.328 4.225 6.314 6.328 7.854 6.971 3.546 7.321 8.619 6.707 7.852 4.702 3.004 2.741 2.918 2.709 3.046 )
~ Qmult=(0.8937 1.3065 1.5174 1.3679 1.2166 0.7164 1.5721 1.5163 1.5335 3.058 2.501 2.5815 2.5301 1.4015 2.8934 2.1601 2.2045 2.5808 0.9548 1.4549 1.2488 1.0591 1.312 1.0012)

//----------------------------------------------------------------------------------------------------------------------//
New LoadShape.2040_loadcurve interval=1 npts=24 useactual=Yes
~ mult=(77.96 78.72 82.76 99.48 102.36 110.64 113.76 118.32 107.48 97.8 106.44 111.2 107.12 102.24 102.92 96.48 100.4 96.72 91.4 101.0 101.16 98.0 89.88 70.88 )
~ Qmult=(19.5386 15.9848 40.0825 45.3244 25.6538 43.7277 55.0965 24.0259 39.01 44.559 45.3433 36.5497 38.8794 40.4078 40.6766 28.14 39.6806 13.7819 33.1738 48.9165 36.7162 32.211 32.6221 30.1948)

//----------------------------------------------------------------------------------------------------------------------//
New LoadShape.2041_loadcurve interval=1 npts=24 useactual=Yes
~ mult=(1.841 1.874 1.859 2.478 1.86 1.909 2.295 7.173 7.478 6.588 6.224 6.027 6.073 6.472 6.219 8.3 6.705 1.674 2.028 1.703 1.703 1.86 1.758 1.766 )
~ Qmult=(0.6682 0.5466 0.3775 1.2002 0.6114 0.6275 0.9777 1.7977 2.7142 1.6511 1.2638 1.2238 1.7713 1.8877 2.6493 4.0199 3.0549 0.7627 0.289 0.2427 0.3458 0.9008 0.5778 0.5805)

//----------------------------------------------------------------------------------------------------------------------//
New LoadShape.2042_loadcurve interval=1 npts=24 useactual=Yes
~ mult=(5.362 5.299 4.82 5.406 4.866 5.476 4.695 5.02 5.302 7.914 9.388 7.807 7.833 6.483 6.484 5.73 5.428 6.266 8.125 8.407 9.94 6.781 6.546 5.497 )
~ Qmult=(1.0888 1.7417 2.3344 1.7769 2.3567 1.7999 1.5432 2.1385 1.0766 2.6012 4.5468 2.566 1.5906 2.1309 2.7622 1.1635 2.4731 1.8276 1.1577 3.0513 2.8992 2.8887 2.5871 1.9951)

//----------------------------------------------------------------------------------------------------------------------//
New LoadShape.2043_loadcurve interval=1 npts=24 useactual=Yes
~ mult=(6.128 6.216 6.137 6.56 6.792 6.631 9.296 13.042 17.549 24.13 26.803 18.996 13.856 16.916 19.249 17.06 15.717 5.773 5.346 6.415 5.881 5.588 5.677 5.511 )
~ Qmult=(1.7873 3.0105 2.6144 1.9133 3.0945 2.4067 3.674 2.6483 6.3694 10.2793 8.8097 7.5077 4.0413 7.7072 5.6143 6.192 5.7045 0.8226 1.7571 2.7328 0.838 2.546 2.5865 1.3812)

//----------------------------------------------------------------------------------------------------------------------//
New LoadShape.2045_loadcurve interval=1 npts=24 useactual=Yes
~ mult=(2.239 2.199 2.141 2.14 2.247 2.54 2.188 2.197 5.395 2.359 2.189 2.185 2.761 2.242 2.171 2.216 2.736 2.271 2.266 2.146 2.231 2.261 2.606 3.779 )
~ Qmult=(0.4546 1.0019 0.6245 0.975 0.4563 1.0039 1.0597 0.8683 1.0955 1.0748 0.5486 0.793 0.5606 0.4553 1.0515 0.8043 1.0813 0.8976 0.9653 0.9142 0.8097 1.0301 1.1102 1.3716)

//----------------------------------------------------------------------------------------------------------------------//
New LoadShape.2046_loadcurve interval=1 npts=24 useactual=Yes
~ mult=(4.609 5.97 6.334 6.771 6.6 8.702 8.474 8.76 8.691 4.976 6.317 6.195 5.067 5.363 7.949 5.103 5.007 5.483 5.609 6.38 6.347 5.862 7.986 4.488 )
~ Qmult=(1.8216 2.72 2.0819 1.3749 1.6541 3.1584 2.1238 1.2482 2.5349 1.2471 2.4966 1.5526 1.6654 1.089 2.8851 1.6773 2.2813 1.1134 2.3894 3.09 1.5907 1.7098 1.1379 1.1248)

//----------------------------------------------------------------------------------------------------------------------//
New LoadShape.2047_loadcurve interval=1 npts=24 useactual=Yes
~ mult=(4.198 4.465 4.275 6.166 4.618 3.921 8.872 10.598 8.506 10.738 10.322 9.697 9.159 8.887 8.874 6.991 9.444 10.468 5.127 7.796 8.278 9.95 5.641 4.842 )
~ Qmult=(0.8524 1.4676 1.6896 0.8786 1.6761 1.1436 3.7795 4.8286 2.1318 4.2439 3.0106 4.6965 4.173 3.5124 4.0431 0.9962 3.7325 3.7994 1.0411 2.5624 3.5264 4.819 1.6453 2.2061)

//----------------------------------------------------------------------------------------------------------------------//
New LoadShape.2048_loadcurve interval=1 npts=24 useactual=Yes
~ mult=(4.167 3.84 3.703 3.963 5.22 4.832 4.297 5.555 3.817 3.914 3.983 3.016 3.477 3.445 3.986 3.543 5.668 8.91 7.691 8.066 9.88 7.517 4.609 4.289 )
~ Qmult=(1.7751 0.9624 1.2171 0.5647 0.7438 1.5882 1.9578 0.7915 1.5086 1.6674 1.5742 0.7559 1.5842 1.1323 1.3101 1.6142 2.0572 4.0595 3.5041 2.3526 3.9048 2.9709 2.0999 1.9541)

//----------------------------------------------------------------------------------------------------------------------//
New LoadShape.2049_loadcurve interval=1 npts=24 useactual=Yes
~ mult=(3.783 3.769 3.419 3.986 4.026 3.87 4.175 4.869 4.75 4.121 3.469 7.371 7.55 3.376 4.07 3.647 4.284 5.741 4.468 4.814 4.096 4.926 3.96 3.522 )
~ Qmult=(1.4951 1.0993 1.3513 1.698 0.8175 0.9699 2.022 1.7672 0.6768 1.9959 0.4943 2.1499 1.8922 1.3343 1.02 1.4414 2.0748 2.0837 0.6367 1.5823 1.9838 1.7879 1.155 0.7152)

//----------------------------------------------------------------------------------------------------------------------//
New LoadShape.2050_loadcurve interval=1 npts=24 useactual=Yes
~ mult=(2.193 2.666 2.113 2.131 2.753 2.89 7.188 6.181 2.934 2.12 2.661 1.923 2.357 2.594 2.145 2.373 2.542 2.128 2.197 6.84 3.418 4.002 2.389 2.631 )
~ Qmult=(1.0621 0.6682 0.3011 0.8422 0.9992 1.2311 2.8409 2.0316 1.2499 0.3021 0.3792 0.76 0.8555 0.8526 0.8478 0.9379 0.5162 0.6994 1.001 2.7033 1.3509 1.8234 1.157 1.1208)

//----------------------------------------------------------------------------------------------------------------------//
New LoadShape.2051_loadcurve interval=1 npts=24 useactual=Yes
~ mult=(5.794 4.144 4.36 4.324 4.812 4.877 9.702 11.948 5.082 4.327 5.128 8.37 9.397 8.76 5.979 5.612 8.748 10.015 7.507 10.508 9.148 8.151 5.426 4.675 )
~ Qmult=(2.1029 1.8881 2.1116 2.0942 1.4035 1.603 2.8298 5.0898 0.7241 1.0844 2.0267 2.0977 4.0031 3.1795 2.8958 1.8446 2.8753 4.8505 2.4674 5.0893 1.3035 1.1615 2.6279 1.8477)

//----------------------------------------------------------------------------------------------------------------------//
New LoadShape.2052_loadcurve interval=1 npts=24 useactual=Yes
~ mult=(73.975 74.327 71.106 71.45 72.315 72.706 77.692 112.968 118.418 107.63 126.585 130.369 126.584 114.788 99.536 99.204 88.42 79.611 81.78 90.154 84.308 71.21 66.136 65.133 )
~ Qmult=(35.8277 24.4301 32.3969 30.4376 32.9477 14.7636 15.776 41.0019 57.3525 42.5381 53.925 32.6736 53.9246 48.8995 45.3499 28.9345 42.8238 38.5574 16.6061 43.6636 38.4119 17.8469 32.0311 25.7422)

//----------------------------------------------------------------------------------------------------------------------//
New LoadShape.2053_loadcurve interval=1 npts=24 useactual=Yes
~ mult=(5.68 6.6 8.28 7.72 7.72 11.12 53.16 84.96 85.84 76.08 83.2 71.44 77.88 81.16 74.32 78.56 75.6 30.56 11.72 6.24 6.16 6.08 6.12 5.92 )
~ Qmult=(0.8094 0.9404 2.415 3.739 1.5676 2.7869 7.5749 24.78 36.5677 19.0674 11.8554 17.9046 15.8142 11.5647 10.59 28.5135 22.05 11.0918 4.632 2.6582 2.8066 1.5238 0.8721 1.7267)

//----------------------------------------------------------------------------------------------------------------------//
New LoadShape.2054_loadcurve interval=1 npts=24 useactual=Yes
~ mult=(4.468 4.391 4.393 4.494 5.585 7.146 11.21 11.969 7.261 7.584 6.131 6.201 6.15 5.421 5.185 5.327 5.37 6.092 6.13 7.993 6.506 6.199 5.12 4.039 )
~ Qmult=(1.3032 2.1267 0.892 0.6404 2.0271 3.0442 4.4305 3.934 2.8697 1.54 2.2253 1.2592 1.5413 1.5811 2.2088 0.7591 1.0904 1.237 1.2447 1.1389 3.151 1.5536 1.0397 1.466)

//----------------------------------------------------------------------------------------------------------------------//
New LoadShape.2055_loadcurve interval=1 npts=24 useactual=Yes
~ mult=(3.287 3.623 3.692 3.21 3.674 3.491 3.42 3.629 4.044 4.027 2.988 3.08 3.728 4.641 3.426 6.025 6.056 3.699 9.497 7.245 5.658 4.973 3.698 4.204 )