//***************************************************************************************//
//                                             Feeder A
//***************************************************************************************//
//--------------------------------------------------------//
New Line.L_1001_1002 phases=3 Bus1=bus1001.1.2.3 Bus2=bus1002.1.2.3    ! Line segment name, number of phases, 1st bus, 2nd bus
 ~ length=2967 units=Ft LineCode=UG_3p_type1		         ! Length, unit, line configuration

//--------------------------------------------------------//
New Line.L_1002_1003 phases=3 Bus1=bus1002.1.2.3 Bus2=bus1003.1.2.3
 ~ length=372 units=Ft LineCode=UG_3p_type2

//--------------------------------------------------------//
New Line.L_1002_1004 phases=3 Bus1=bus1002.1.2.3 Bus2=bus1004.1.2.3
 ~ length=638 units=Ft LineCode=OH_3p_type1

//--------------------------------------------------------//
New Line.L_1004_1005 phases=3 Bus1=bus1004.1.2.3 Bus2=bus1005.1.2.3
 ~ length=394 units=Ft LineCode=OH_3p_type1

//--------------------------------------------------------//
New Line.L_1005_1006 phases=3 Bus1=bus1005.1.2.3 Bus2=bus1006.1.2.3
 ~ length=1049 units=Ft LineCode=OH_3p_type1

//--------------------------------------------------------//------------AB
New Line.L_1006_1007 phases=2 Bus1=bus1006.1.2 Bus2=bus1007.1.2
 ~ length=2000 units=Ft LineCode=OH_2p_type2

//--------------------------------------------------------//
New Line.L_1006_1008 phases=3 Bus1=bus1006.1.2.3 Bus2=bus1008.1.2.3
 ~ length=454 units=Ft LineCode=OH_3p_type1

//--------------------------------------------------------//
New Line.L_1008_1009 phases=3 Bus1=bus1008.1.2.3 Bus2=bus1009.1.2.3
 ~ length=1082 units=Ft LineCode=OH_3p_type1

//--------------------------------------------------------//
New Line.L_1009_1010 phases=3 Bus1=bus1009.1.2.3 Bus2=bus1010.1.2.3
 ~ length=169 units=Ft LineCode=OH_3p_type1

//--------------------------------------------------------//
New Line.L_1009_1011 phases=3 Bus1=bus1009.1.2.3 Bus2=bus1011.1.2.3
 ~ length=60 units=Ft LineCode=UG_3p_type2

//--------------------------------------------------------//
New Line.L_1011_1012 phases=3 Bus1=bus1011.1.2.3 Bus2=bus1012.1.2.3
 ~ length=60 units=Ft LineCode=UG_3p_type2

//--------------------------------------------------------//
New Line.L_1012_1013 phases=3 Bus1=bus1012.1.2.3 Bus2=bus1013.1.2.3
 ~ length=306 units=Ft LineCode=UG_3p_type2

//--------------------------------------------------------//----------B
New Line.L_1013_1014 phases=1 Bus1=bus1013.2.0 Bus2=bus1014.2.0
 ~ length=208 units=Ft LineCode=UG_1p_type2

//--------------------------------------------------------//----------B
New Line.L_1014_1015 phases=1 Bus1=bus1014.2.0 Bus2=bus1015.2.0
 ~ length=126 units=Ft LineCode=UG_1p_type2

//--------------------------------------------------------//----------C
New Line.L_1013_1016 phases=1 Bus1=bus1013.3.0 Bus2=bus1016.3.0
 ~ length=468 units=Ft LineCode=UG_1p_type2

//--------------------------------------------------------//----------C
New Line.L_1016_1017 phases=1 Bus1=bus1016.3.0 Bus2=bus1017.3.0
 ~ length=71 units=Ft LineCode=UG_1p_type2

//--------------------------------------------------------//----------
New Line.L_1003_1003_L phases=3 Bus1=bus1003.1.2.3.0 Bus2=T_bus1003_L.1.2.3.0
 ~ length=1 units=Ft LineCode=T_type1

//--------------------------------------------------------//----------
New Line.L_1004_1004_L phases=3 Bus1=bus1004.1.2.3.0 Bus2=T_bus1004_L.1.2.3.0
 ~ length=1 units=Ft LineCode=T_type2

//--------------------------------------------------------//----------
New Line.L_1005_1005_L phases=3 Bus1=bus1005.1.2.3.0 Bus2=T_bus1005_L.1.2.3.0
 ~ length=1 units=Ft LineCode=T_type2

//--------------------------------------------------------//----------
New Line.L_1006_1006_L_1 phases=1 Bus1=bus1006.1.0 Bus2=T_bus1006_L.1.0
 ~ length=1 units=Ft LineCode=T_type3

New Line.L_1006_1006_L_2 phases=1 Bus1=bus1006.2.0 Bus2=T_bus1006_L.2.0
 ~ length=1 units=Ft LineCode=T_type3

//--------------------------------------------------------//----------
New Line.L_1007_1007_L_1 phases=1 Bus1=bus1007.1.0 Bus2=T_bus1007_L.1.0
 ~ length=1 units=Ft LineCode=T_type4

New Line.L_1007_1007_L_2 phases=1 Bus1=bus1007.2.0 Bus2=T_bus1007_L.2.0
 ~ length=1 units=Ft LineCode=T_type4

//--------------------------------------------------------//----------
New Line.L_1008_1008_L phases=3 Bus1=bus1008.1.2.3.0 Bus2=T_bus1008_L.1.2.3.0
 ~ length=1 units=Ft LineCode=T_type5

//--------------------------------------------------------//----------
New Line.L_1009_1009_L phases=3 Bus1=bus1009.1.2.3.0 Bus2=T_bus1009_L.1.2.3.0
 ~ length=1 units=Ft LineCode=T_type2

//--------------------------------------------------------//----------
New Line.L_1010_1010_L phases=3 Bus1=bus1010.1.2.3.0 Bus2=T_bus1010_L.1.2.3.0
 ~ length=1 units=Ft LineCode=T_type5

//--------------------------------------------------------//----------
New Line.L_1011_1011_L phases=1 Bus1=bus1011.1.0 Bus2=T_bus1011_L.1.0
 ~ length=1 units=Ft LineCode=T_type6

//--------------------------------------------------------//----------
New Line.L_1012_1012_L phases=1 Bus1=bus1012.2.0 Bus2=T_bus1012_L.2.0
 ~ length=1 units=Ft LineCode=T_type7

//--------------------------------------------------------//----------
New Line.L_1013_1013_L phases=3 Bus1=bus1013.1.2.3.0 Bus2=T_bus1013_L.1.2.3.0
 ~ length=1 units=Ft LineCode=T_type5

//--------------------------------------------------------//----------
New Line.L_1014_1014_L phases=1 Bus1=bus1014.2.0 Bus2=T_bus1014_L.2.0
 ~ length=1 units=Ft LineCode=T_type6

//--------------------------------------------------------//----------
New Line.L_1015_1015_L phases=1 Bus1=bus1015.2.0 Bus2=T_bus1015_L.2.0
 ~ length=1 units=Ft LineCode=T_type6

//--------------------------------------------------------//----------
New Line.L_1016_1016_L phases=1 Bus1=bus1016.3.0 Bus2=T_bus1016_L.3.0
 ~ length=1 units=Ft LineCode=T_type8

//--------------------------------------------------------//----------
New Line.L_1017_1017_L phases=1 Bus1=bus1017.3.0 Bus2=T_bus1017_L.3.0
 ~ length=1 units=Ft LineCode=T_type7



//***************************************************************************************//
//                                             Feeder B
//***************************************************************************************//
//--------------------------------------------------------//
New Line.L_2001_2002 phases=3 Bus1=bus2001.1.2.3 Bus2=bus2002.1.2.3
 ~ length=1388 units=Ft LineCode=UG_3p_type1

//--------------------------------------------------------//
New Line.L_2002_2003 phases=3 Bus1=bus2002.1.2.3 Bus2=bus2003.1.2.3
 ~ length=1281 units=Ft LineCode=OH_3p_type1

//--------------------------------------------------------//
New Line.L_2003_2004 phases=3 Bus1=bus2003.1.2.3 Bus2=bus2004.1.2.3
 ~ length=798 units=Ft LineCode=OH_3p_type1

//--------------------------------------------------------//
New Line.L_2004_2005 phases=3 Bus1=bus2004.1.2.3 Bus2=bus2005.1.2.3
 ~ length=317 units=Ft LineCode=OH_3p_type1

//--------------------------------------------------------//
New Line.L_2005_2006 phases=3 Bus1=bus2005.1.2.3 Bus2=bus2006.1.2.3
 ~ length=145 units=Ft LineCode=OH_3p_type1

//--------------------------------------------------------//--------A
New Line.L_2006_2007 phases=1 Bus1=bus2006.1 Bus2=bus2007.1
 ~ length=245 units=Ft LineCode=OH_1p_type5

//--------------------------------------------------------//--------A
New Line.L_2007_2008 phases=1 Bus1=bus2007.1 Bus2=bus2008.1
 ~ length=125 units=Ft LineCode=UG_1p_type2

//--------------------------------------------------------//--------A
New Line.L_2007_2009 phases=1 Bus1=bus2007.1 Bus2=bus2009.1
 ~ length=161 units=Ft LineCode=OH_1p_type2

//--------------------------------------------------------//
New Line.L_2006_2010 phases=3 Bus1=bus2006.1.2.3 Bus2=bus2010.1.2.3
 ~ length=170 units=Ft LineCode=OH_3p_type1

//--------------------------------------------------------//
New Line.L_2010_2011 phases=3 Bus1=bus2010.1.2.3 Bus2=bus2011.1.2.3
 ~ length=275 units=Ft LineCode=OH_3p_type1

//--------------------------------------------------------//
New Line.L_2011_2012 phases=3 Bus1=bus2011.1.2.3 Bus2=bus2012.1.2.3
 ~ length=503 units=Ft LineCode=OH_3p_type1

//--------------------------------------------------------//
New Line.L_2013_2014 phases=3 Bus1=bus2013.1.2.3 Bus2=bus2014.1.2.3
 ~ length=268 units=Ft LineCode=OH_3p_type1

//--------------------------------------------------------//--------B
New Line.L_2014_2015 phases=1 Bus1=bus2014.2 Bus2=bus2015.2
 ~ length=120 units=Ft LineCode=UG_1p_type2

//--------------------------------------------------------//
New Line.L_2014_2016 phases=3 Bus1=bus2014.1.2.3 Bus2=bus2016.1.2.3
 ~ length=257 units=Ft LineCode=OH_3p_type1

//--------------------------------------------------------//
New Line.L_2016_2017 phases=3 Bus1=bus2016.1.2.3 Bus2=bus2017.1.2.3
 ~ length=174 units=Ft LineCode=UG_3p_type2

//--------------------------------------------------------//
New Line.L_2017_2018 phases=3 Bus1=bus2017.1.2.3 Bus2=bus2018.1.2.3
 ~ length=447 units=Ft LineCode=UG_3p_type2

//--------------------------------------------------------//
New Line.L_2013_2019 phases=3 Bus1=bus2013.1.2.3 Bus2=bus2019.1.2.3
 ~ length=45 units=Ft LineCode=OH_3p_type1

//--------------------------------------------------------//--------B
New Line.L_2019_2020 phases=1 Bus1=bus2019.2 Bus2=bus2020.2
 ~ length=642 units=Ft LineCode=UG_1p_type2

//--------------------------------------------------------//
New Line.L_2019_2021 phases=3 Bus1=bus2019.1.2.3 Bus2=bus2021.1.2.3
 ~ length=43 units=Ft LineCode=OH_3p_type1

//--------------------------------------------------------//--------C
New Line.L_2021_2022 phases=1 Bus1=bus2021.3 Bus2=bus2022.3
 ~ length=205 units=Ft LineCode=UG_1p_type2

//--------------------------------------------------------//--------C
New Line.L_2022_2023 phases=1 Bus1=bus2022.3 Bus2=bus2023.3
 ~ length=150 units=Ft LineCode=UG_1p_type2

//--------------------------------------------------------//--------C
New Line.L_2023_2024 phases=1 Bus1=bus2023.3 Bus2=bus2024.3
 ~ length=408 units=Ft LineCode=UG_1p_type2

//--------------------------------------------------------//--------C
New Line.L_2024_2025 phases=1 Bus1=bus2024.3 Bus2=bus2025.3
 ~ length=331 units=Ft LineCode=UG_1p_type2

//--------------------------------------------------------//
New Line.L_2026_2027 phases=3 Bus1=bus2026.1.2.3 Bus2=bus2027.1.2.3
 ~ length=369 units=Ft LineCode=OH_3p_type1

//--------------------------------------------------------//
New Line.L_2027_2028 phases=3 Bus1=bus2027.1.2.3 Bus2=bus2028.1.2.3
 ~ length=285 units=Ft LineCode=UG_3p_type2

//--------------------------------------------------------//
New Line.L_2028_2029 phases=3 Bus1=bus2028.1.2.3 Bus2=bus2029.1.2.3
 ~ length=131 units=Ft LineCode=UG_3p_type2

//--------------------------------------------------------//
New Line.L_2029_2030 phases=3 Bus1=bus2029.1.2.3 Bus2=bus2030.1.2.3
 ~ length=165 units=Ft LineCode=UG_3p_type2

//--------------------------------------------------------//
New Line.L_2030_2031 phases=3 Bus1=bus2030.1.2.3 Bus2=bus2031.1.2.3
 ~ length=245 units=Ft LineCode=UG_3p_type2

//--------------------------------------------------------//
New Line.L_2027_2032 phases=3 Bus1=bus2027.1.2.3 Bus2=bus2032.1.2.3
 ~ length=149 units=Ft LineCode=OH_3p_type1

//--------------------------------------------------------//
New Line.L_2032_2033 phases=3 Bus1=bus2032.1.2.3 Bus2=bus2033.1.2.3
 ~ length=289 units=Ft LineCode=OH_3p_type1

//--------------------------------------------------------//
New Line.L_2033_2034 phases=3 Bus1=bus2033.1.2.3 Bus2=bus2034.1.2.3
 ~ length=185 units=Ft LineCode=OH_3p_type5

//--------------------------------------------------------//
New Line.L_2033_2035 phases=3 Bus1=bus2033.1.2.3 Bus2=bus2035.1.2.3
 ~ length=160 units=Ft LineCode=OH_3p_type1

//--------------------------------------------------------//
New Line.L_2035_2036 phases=3 Bus1=bus2035.1.2.3 Bus2=bus2036.1.2.3
 ~ length=160 units=Ft LineCode=OH_3p_type1

//--------------------------------------------------------//
New Line.L_2036_2037 phases=3 Bus1=bus2036.1.2.3 Bus2=bus2037.1.2.3
 ~ length=80 units=Ft LineCode=OH_3p_type1

//--------------------------------------------------------//
New Line.L_2037_2038 phases=3 Bus1=bus2037.1.2.3 Bus2=bus2038.1.2.3
 ~ length=192 units=Ft LineCode=OH_3p_type1

//--------------------------------------------------------//
New Line.L_2038_2039 phases=3 Bus1=bus2038.1.2.3 Bus2=bus2039.1.2.3
 ~ length=800 units=Ft LineCode=OH_3p_type1

//--------------------------------------------------------//
New Line.L_2039_2040 phases=3 Bus1=bus2039.1.2.3 Bus2=bus2040.1.2.3
 ~ length=309 units=Ft LineCode=OH_3p_type1

//--------------------------------------------------------//
New Line.L_2040_2041 phases=3 Bus1=bus2040.1.2.3 Bus2=bus2041.1.2.3
 ~ length=383 units=Ft LineCode=OH_3p_type1

//--------------------------------------------------------//
New Line.L_2039_2042 phases=3 Bus1=bus2039.1.2.3 Bus2=bus2042.1.2.3
 ~ length=35 units=Ft LineCode=UG_3p_type2

//--------------------------------------------------------//
New Line.L_2042_2043 phases=3 Bus1=bus2042.1.2.3 Bus2=bus2043.1.2.3
 ~ length=158 units=Ft LineCode=UG_3p_type2

//--------------------------------------------------------//
New Line.L_2043_2044 phases=3 Bus1=bus2043.1.2.3 Bus2=bus2044.1.2.3
 ~ length=342 units=Ft LineCode=UG_3p_type2

//--------------------------------------------------------//----------B
New Line.L_2044_2045 phases=1 Bus1=bus2044.2 Bus2=bus2045.2
 ~ length=323 units=Ft LineCode=UG_1p_type2

//--------------------------------------------------------//----------B
New Line.L_2045_2046 phases=1 Bus1=bus2045.2 Bus2=bus2046.2
 ~ length=330 units=Ft LineCode=UG_1p_type2

//--------------------------------------------------------//----------B
New Line.L_2045_2047 phases=1 Bus1=bus2045.2 Bus2=bus2047.2
 ~ length=189 units=Ft LineCode=UG_1p_type2

//--------------------------------------------------------//----------B
New Line.L_2047_2048 phases=1 Bus1=bus2047.2 Bus2=bus2048.2
 ~ length=259 units=Ft LineCode=UG_1p_type2

//--------------------------------------------------------//
New Line.L_2044_2049 phases=3 Bus1=bus2044.1.2.3 Bus2=bus2049.1.2.3
 ~ length=130 units=Ft LineCode=UG_3p_type2

//--------------------------------------------------------//
New Line.L_2049_2050 phases=3 Bus1=bus2049.1.2.3 Bus2=bus2050.1.2.3
 ~ length=124 units=Ft LineCode=UG_3p_type2

//--------------------------------------------------------//
New Line.L_2050_2051 phases=3 Bus1=bus2050.1.2.3 Bus2=bus2051.1.2.3
 ~ length=139 units=Ft LineCode=UG_3p_type2

//--------------------------------------------------------//
New Line.L_2051_2052 phases=3 Bus1=bus2051.1.2.3 Bus2=bus2052.1.2.3
 ~ length=134 units=Ft LineCode=UG_3p_type2

//--------------------------------------------------------//
New Line.L_2044_2053 phases=3 Bus1=bus2044.1.2.3 Bus2=bus2053.1.2.3
 ~ length=464 units=Ft LineCode=UG_3p_type2

//--------------------------------------------------------//
New Line.L_2053_2054 phases=3 Bus1=bus2053.1.2.3 Bus2=bus2054.1.2.3
 ~ length=139 units=Ft LineCode=UG_3p_type2

//--------------------------------------------------------//
New Line.L_2054_2055 phases=1 Bus1=bus2054.1.2.3 Bus2=bus2055.1.2.3
 ~ length=156 units=Ft LineCode=UG_3p_type2

//--------------------------------------------------------//
New Line.L_2055_2056 phases=1 Bus1=bus2055.1.2.3 Bus2=bus2056.1.2.3
 ~ length=204 units=Ft LineCode=UG_3p_type2

//--------------------------------------------------------//
New Line.L_2053_2057 phases=3 Bus1=bus2053.1.2.3 Bus2=bus2057.1.2.3
 ~ length=761 units=Ft LineCode=UG_3p_type2

//--------------------------------------------------------//
New Line.L_2057_2058 phases=3 Bus1=bus2057.1.2.3 Bus2=bus2058.1.2.3
 ~ length=407 units=Ft LineCode=UG_3p_type2

//--------------------------------------------------------//
New Line.L_2057_2059 phases=3 Bus1=bus2057.1.2.3 Bus2=bus2059.1.2.3
 ~ length=685 units=Ft LineCode=UG_3p_type2

//--------------------------------------------------------//
New Line.L_2059_2060 phases=3 Bus1=bus2059.1.2.3 Bus2=bus2060.1.2.3
 ~ length=304 units=Ft LineCode=UG_3p_type2

//--------------------------------------------------------//----------
New Line.L_2002_2002_L phases=3 Bus1=bus2002.1.2.3 Bus2=T_bus2002_L.1.2.3
 ~ length=1 units=Ft LineCode=T_type9

//--------------------------------------------------------//----------
New Line.L_2003_2003_L phases=3 Bus1=bus2003.1.2.3.0 Bus2=T_bus2003_L.1.2.3.0
 ~ length=1 units=Ft LineCode=T_type2

//--------------------------------------------------------//----------
New Line.L_2005_2005_L phases=3 Bus1=bus2005.1.2.3.0 Bus2=T_bus2005_L.1.2.3.0
 ~ length=1 units=Ft LineCode=T_type5

//--------------------------------------------------------//----------
New Line.L_2008_2008_L phases=1 Bus1=bus2008.1.0 Bus2=T_bus2008_L.1.0
 ~ length=1 units=Ft LineCode=T_type6

//--------------------------------------------------------//----------
New Line.L_2009_2009_L phases=1 Bus1=bus2009.1.0 Bus2=T_bus2009_L.1.0
 ~ length=1 units=Ft LineCode=T_type6

//--------------------------------------------------------//----------
New Line.L_2010_2010_L phases=3 Bus1=bus2010.1.2.3.0 Bus2=T_bus2010_L.1.2.3.0
 ~ length=1 units=Ft LineCode=T_type5

//--------------------------------------------------------//----------
New Line.L_2011_2011_L phases=3 Bus1=bus2011.1.2.3.0 Bus2=T_bus2011_L.1.2.3.0
 ~ length=1 units=Ft LineCode=T_type5

//--------------------------------------------------------//----------
New Line.L_2014_2014_L phases=1 Bus1=bus2014.2.0 Bus2=T_bus2014_L.2.0
 ~ length=1 units=Ft LineCode=T_type7

//--------------------------------------------------------//----------
New Line.L_2015_2015_L phases=1 Bus1=bus2015.2.0 Bus2=T_bus2015_L.2.0
 ~ length=1 units=Ft LineCode=T_type6

//--------------------------------------------------------//----------
New Line.L_2016_2016_L phases=1 Bus1=bus2016.2.0 Bus2=T_bus2016_L.2.0
 ~ length=1 units=Ft LineCode=T_type6

//--------------------------------------------------------//----------
New Line.L_2017_2017_L phases=1 Bus1=bus2017.2.0 Bus2=T_bus2017_L.2.0
 ~ length=1 units=Ft LineCode=T_type6

//--------------------------------------------------------//----------
New Line.L_2018_2018_L phases=1 Bus1=bus2018.2.0 Bus2=T_bus2018_L.2.0
 ~ length=1 units=Ft LineCode=T_type6

//--------------------------------------------------------//----------
New Line.L_2020_2020_L phases=1 Bus1=bus2020.2.0 Bus2=T_bus2020_L.2.0
 ~ length=1 units=Ft LineCode=T_type6

//--------------------------------------------------------//----------
New Line.L_2022_2022_L phases=1 Bus1=bus2022.3.0 Bus2=T_bus2022_L.3.0
 ~ length=1 units=Ft LineCode=T_type6

//--------------------------------------------------------//----------
New Line.L_2023_2023_L phases=1 Bus1=bus2023.3.0 Bus2=T_bus2023_L.3.0
 ~ length=1 units=Ft LineCode=T_type10

//--------------------------------------------------------//----------
New Line.L_2024_2024_L phases=1 Bus1=bus2024.3.0 Bus2=T_bus2024_L.3.0
 ~ length=1 units=Ft LineCode=T_type6

//--------------------------------------------------------//----------
New Line.L_2025_2025_L phases=1 Bus1=bus2025.3.0 Bus2=T_bus2025_L.3.0
 ~ length=1 units=Ft LineCode=T_type6

//--------------------------------------------------------//----------
New Line.L_2028_2028_L phases=1 Bus1=bus2028.1.0 Bus2=T_bus2028_L.1.0
 ~ length=1 units=Ft LineCode=T_type6

//--------------------------------------------------------//----------
New Line.L_2029_2029_L phases=3 Bus1=bus2029.1.2.3.0 Bus2=T_bus2029_L.1.2.3.0
 ~ length=1 units=Ft LineCode=T_type2

//--------------------------------------------------------//----------
New Line.L_2030_2030_L phases=3 Bus1=bus2030.1.2.3.0 Bus2=T_bus2030_L.1.2.3.0
 ~ length=1 units=Ft LineCode=T_type2

//--------------------------------------------------------//----------
New Line.L_2031_2031_L phases=1 Bus1=bus2031.1.0 Bus2=T_bus2031_L.1.0
 ~ length=1 units=Ft LineCode=T_type6

//--------------------------------------------------------//----------
New Line.L_2032_2032_L phases=3 Bus1=bus2032.1.2.3.0 Bus2=T_bus2032_L.1.2.3.0
 ~ length=1 units=Ft LineCode=T_type5

//--------------------------------------------------------//----------
New Line.L_2034_2034_L phases=3 Bus1=bus2034.1.2.3.0 Bus2=T_bus2034_L.1.2.3.0
 ~ length=1 units=Ft LineCode=T_type5

//--------------------------------------------------------//----------
New Line.L_2035_2035_L phases=3 Bus1=bus2035.1.2.3.0 Bus2=T_bus2035_L.1.2.3.0
 ~ length=1 units=Ft LineCode=T_type2

//--------------------------------------------------------//----------
New Line.L_2037_2037_L phases=3 Bus1=bus2037.1.2.3.0 Bus2=T_bus2037_L.1.2.3.0
 ~ length=1 units=Ft LineCode=T_type5

//--------------------------------------------------------//----------
New Line.L_2040_2040_L phases=3 Bus1=bus2040.1.2.3.0 Bus2=T_bus2040_L.1.2.3.0
 ~ length=1 units=Ft LineCode=T_type9

//--------------------------------------------------------//----------
New Line.L_2041_2041_L phases=3 Bus1=bus2041.1.2.3.0 Bus2=T_bus2041_L.1.2.3.0
 ~ length=1 units=Ft LineCode=T_type5

//--------------------------------------------------------//----------
New Line.L_2042_2042_L phases=3 Bus1=bus2042.1.2.3.0 Bus2=T_bus2042_L.1.2.3.0
 ~ length=1 units=Ft LineCode=T_type2

//--------------------------------------------------------//----------
New Line.L_2043_2043_L phases=3 Bus1=bus2043.1.2.3.0 Bus2=T_bus2043_L.1.2.3.0
 ~ length=1 units=Ft LineCode=T_type2

//--------------------------------------------------------//----------
New Line.L_2045_2045_L phases=1 Bus1=bus2045.2.0 Bus2=T_bus2045_L.2.0
 ~ length=1 units=Ft LineCode=T_type10

//--------------------------------------------------------//----------
New Line.L_2046_2046_L phases=1 Bus1=bus2046.2.0 Bus2=T_bus2046_L.2.0
 ~ length=1 units=Ft LineCode=T_type8

//--------------------------------------------------------//----------
New Line.L_2047_2047_L phases=1 Bus1=bus2047.2.0 Bus2=T_bus2047_L.2.0
 ~ length=1 units=Ft LineCode=T_type8

//--------------------------------------------------------//----------
New Line.L_2048_2048_L phases=1 Bus1=bus2048.2.0 Bus2=T_bus2048_L.2.0
 ~ length=1 units=Ft LineCode=T_type8

//--------------------------------------------------------//----------
New Line.L_2049_2049_L phases=1 Bus1=bus2049.3.0 Bus2=T_bus2049_L.3.0
 ~ length=1 units=Ft LineCode=T_type7

//--------------------------------------------------------//----------
New Line.L_2050_2050_L phases=1 Bus1=bus2050.3.0 Bus2=T_bus2050_L.3.0
 ~ length=1 units=Ft LineCode=T_type7

//--------------------------------------------------------//----------
New Line.L_2051_2051_L phases=1 Bus1=bus2051.3.0 Bus2=T_bus2051_L.3.0
 ~ length=1 units=Ft LineCode=T_type7

//--------------------------------------------------------//----------
New Line.L_2052_2052_L phases=3 Bus1=bus2052.1.2.3.0 Bus2=T_bus2052_L.1.2.3.0
 ~ length=1 units=Ft LineCode=T_type11

//--------------------------------------------------------//----------
New Line.L_2053_2053_L phases=3 Bus1=bus2053.1.2.3.0 Bus2=T_bus2053_L.1.2.3.0
 ~ length=1 units=Ft LineCode=T_type11

//--------------------------------------------------------//----------
New Line.L_2054_2054_L phases=1 Bus1=bus2054.1.0 Bus2=T_bus2054_L.1.0
 ~ length=1 units=Ft LineCode=T_type7

//--------------------------------------------------------//----------
New Line.L_2055_2055_L phases=1 Bus1=bus2055.1.0 Bus2=T_bus2055_L.1.0
 ~ length=1 units=Ft LineCode=T_type8

//--------------------------------------------------------//----------
New Line.L_2056_2056_L phases=1 Bus1=bus2056.1.0 Bus2=T_bus2056_L.1.0
 ~ length=1 units=Ft LineCode=T_type6

//--------------------------------------------------------//----------
New Line.L_2058_2058_L phases=3 Bus1=bus2058.1.2.3.0 Bus2=T_bus2058_L.1.2.3.0
 ~ length=1 units=Ft LineCode=T_type9

//--------------------------------------------------------//----------
New Line.L_2059_2059_L phases=1 Bus1=bus2059.2.0 Bus2=T_bus2059_L.2.0
 ~ length=1 units=Ft LineCode=T_type6

//--------------------------------------------------------//----------
New Line.L_2060_2060_L phases=1 Bus1=bus2060.2.0 Bus2=T_bus2060_L.2.0
 ~ length=1 units=Ft LineCode=T_type6



//***************************************************************************************//
//                                             Feeder C
//***************************************************************************************//
//--------------------------------------------------------//
New Line.L_3001_3003 phases=3 Bus1=bus3001.1.2.3 Bus2=bus3003.1.2.3
 ~ length=2307 units=Ft LineCode=UG_3p_type1

//--------------------------------------------------------//
New Line.L_3003_3002 phases=3 Bus1=bus3003.1.2.3 Bus2=bus3002.1.2.3
 ~ length=85 units=Ft LineCode=UG_3p_type2

//--------------------------------------------------------//
New Line.L_3003_3004 phases=3 Bus1=bus3003.1.2.3 Bus2=bus3004.1.2.3
 ~ length=81 units=Ft LineCode=UG_3p_type2

//--------------------------------------------------------//
New Line.L_3003_3005 phases=3 Bus1=bus3003.1.2.3 Bus2=bus3005.1.2.3
 ~ length=1997 units=Ft LineCode=UG_3p_type1

//--------------------------------------------------------//
New Line.L_3005_3006 phases=3 Bus1=bus3005.1.2.3 Bus2=bus3006.1.2.3
 ~ length=311 units=Ft LineCode=OH_3p_type1

//--------------------------------------------------------//
New Line.L_3006_3007 phases=3 Bus1=bus3006.1.2.3 Bus2=bus3007.1.2.3
 ~ length=370 units=Ft LineCode=OH_3p_type1

//--------------------------------------------------------//
New Line.L_3005_3008 phases=3 Bus1=bus3005.1.2.3 Bus2=bus3008.1.2.3
 ~ length=136 units=Ft LineCode=OH_3p_type1

//--------------------------------------------------------//------------A
New Line.L_3008_3009 phases=1 Bus1=bus3008.1 Bus2=bus3009.1
 ~ length=161 units=Ft LineCode=OH_1p_type5

//--------------------------------------------------------//------------A
New Line.L_3009_3010 phases=1 Bus1=bus3009.1 Bus2=bus3010.1
 ~ length=347 units=Ft LineCode=OH_1p_type5

//--------------------------------------------------------//------------A
New Line.L_3010_3011 phases=1 Bus1=bus3010.1 Bus2=bus3011.1
 ~ length=265 units=Ft LineCode=OH_1p_type5

//--------------------------------------------------------//------------A
New Line.L_3011_3012 phases=1 Bus1=bus3011.1 Bus2=bus3012.1
 ~ length=312 units=Ft LineCode=OH_1p_type5

//--------------------------------------------------------//------------B
New Line.L_3008_3013 phases=1 Bus1=bus3008.2 Bus2=bus3013.2
 ~ length=170 units=Ft LineCode=OH_1p_type5

//--------------------------------------------------------//------------B
New Line.L_3013_3014 phases=1 Bus1=bus3013.2 Bus2=bus3014.2
 ~ length=295 units=Ft LineCode=OH_1p_type5

//--------------------------------------------------------//
New Line.L_3008_3015 phases=3 Bus1=bus3008.1.2.3 Bus2=bus3015.1.2.3
 ~ length=322 units=Ft LineCode=OH_3p_type1

//--------------------------------------------------------//------------B
New Line.L_3015_3016 phases=1 Bus1=bus3015.2 Bus2=bus3016.2
 ~ length=210 units=Ft LineCode=OH_1p_type5

//--------------------------------------------------------//------------B
New Line.L_3016_3017 phases=1 Bus1=bus3016.2 Bus2=bus3017.2
 ~ length=259 units=Ft LineCode=OH_1p_type5

//--------------------------------------------------------//------------C
New Line.L_3015_3018 phases=1 Bus1=bus3015.3 Bus2=bus3018.3
 ~ length=181 units=Ft LineCode=OH_1p_type5

//--------------------------------------------------------//------------C
New Line.L_3018_3019 phases=1 Bus1=bus3018.3 Bus2=bus3019.3
 ~ length=281 units=Ft LineCode=OH_1p_type5

//--------------------------------------------------------//------------C
New Line.L_3019_3020 phases=1 Bus1=bus3019.3 Bus2=bus3020.3
 ~ length=307 units=Ft LineCode=OH_1p_type5

//--------------------------------------------------------//------------C
New Line.L_3020_3021 phases=1 Bus1=bus3020.3 Bus2=bus3021.3
 ~ length=303 units=Ft LineCode=OH_1p_type5

//--------------------------------------------------------//
New Line.L_3015_3022 phases=3 Bus1=bus3015.1.2.3 Bus2=bus3022.1.2.3
 ~ length=289 units=Ft LineCode=OH_3p_type1

//--------------------------------------------------------//------------A
New Line.L_3022_3023 phases=1 Bus1=bus3022.1 Bus2=bus3023.1
 ~ length=181 units=Ft LineCode=OH_1p_type5

//--------------------------------------------------------//------------A
New Line.L_3023_3024 phases=1 Bus1=bus3023.1 Bus2=bus3024.1
 ~ length=320 units=Ft LineCode=OH_1p_type5

//--------------------------------------------------------//------------A
New Line.L_3024_3025 phases=1 Bus1=bus3024.1 Bus2=bus3025.1
 ~ length=331 units=Ft LineCode=OH_1p_type5

//--------------------------------------------------------//------------A
New Line.L_3022_3026 phases=1 Bus1=bus3022.1 Bus2=bus3026.1
 ~ length=164 units=Ft LineCode=OH_1p_type5

//--------------------------------------------------------//------------A
New Line.L_3026_3027 phases=1 Bus1=bus3026.1 Bus2=bus3027.1
 ~ length=368 units=Ft LineCode=OH_1p_type5

//--------------------------------------------------------//------------A
New Line.L_3027_3028 phases=1 Bus1=bus3027.1 Bus2=bus3028.1
 ~ length=241 units=Ft LineCode=OH_1p_type5

//--------------------------------------------------------//------------A
New Line.L_3028_3029 phases=1 Bus1=bus3028.1 Bus2=bus3029.1
 ~ length=317 units=Ft LineCode=OH_1p_type5

//--------------------------------------------------------//
New Line.L_3022_3030 phases=3 Bus1=bus3022.1.2.3 Bus2=bus3030.1.2.3
 ~ length=304 units=Ft LineCode=OH_3p_type1

//--------------------------------------------------------//
New Line.L_3030_3035 phases=3 Bus1=bus3030.1.2.3 Bus2=bus3035.1.2.3
 ~ length=103 units=Ft LineCode=OH_3p_type1
